#       Name:                CT1002167954
#       Creating user name   hitesit
#       Creation time:       Sun Apr 16 02:23:07 2023


#       File generated by GOLD software.
#

@<TRIPOS>MOLECULE
CT1002167954|ligand_prepared|mol2|1|dock8
    29    30     1
SMALL
NO_CHARGES


@<TRIPOS>ATOM
      1 C1         120.8136 155.1974 126.3307 C.3            1 RES1               0.0000
      2 C2         120.7559 155.9022 124.9600 C.ar           1 RES1               0.0000
      3 C3         121.1238 153.7308 126.0456 C.2            1 RES1               0.0000
      4 C4         121.8911 155.9163 127.1350 C.2            1 RES1               0.0000
      5 C5         119.4911 155.2736 127.1286 C.3            1 RES1               0.0000
      6 C6         120.0918 157.1165 124.8149 C.ar           1 RES1               0.0000
      7 C7         121.3633 155.3526 123.8340 C.ar           1 RES1               0.0000
      8 N8         122.3813 153.2846 126.3278 N.am           1 RES1               0.0000
      9 O9         120.2899 152.9871 125.5441 O.2            1 RES1               0.0000
     10 N10        123.0202 155.2144 127.4669 N.am           1 RES1               0.0000
     11 O11        121.7798 157.0892 127.4700 O.2            1 RES1               0.0000
     12 C12        119.4542 154.3595 128.3431 C.3            1 RES1               0.0000
     13 C13        120.0392 157.7597 123.5894 C.ar           1 RES1               0.0000
     14 C14        121.3093 155.9973 122.6094 C.ar           1 RES1               0.0000
     15 C15        123.3276 153.9404 127.0735 C.2            1 RES1               0.0000
     16 C16        120.6482 157.2009 122.4860 C.ar           1 RES1               0.0000
     17 O17        124.3880 153.3958 127.3669 O.2            1 RES1               0.0000
     18 H18        119.3380 156.3080 127.4603 H              1 RES1               0.0000
     19 H19        118.6609 155.0089 126.4621 H              1 RES1               0.0000
     20 H20        119.6046 157.5703 125.6715 H              1 RES1               0.0000
     21 H21        121.8880 154.4061 123.9073 H              1 RES1               0.0000
     22 H22        122.6422 152.3796 125.9493 H              1 RES1               0.0000
     23 H23        123.6939 155.6851 128.0627 H              1 RES1               0.0000
     24 H24        118.5050 154.4519 128.8667 H              1 RES1               0.0000
     25 H25        119.5783 153.3199 128.0474 H              1 RES1               0.0000
     26 H26        120.2514 154.6112 129.0396 H              1 RES1               0.0000
     27 H27        119.5165 158.7060 123.4974 H              1 RES1               0.0000
     28 H28        121.7894 155.5536 121.7435 H              1 RES1               0.0000
     29 H29        120.6072 157.7051 121.5262 H              1 RES1               0.0000
@<TRIPOS>BOND
    1    1    2 1     
    2    1    3 1     
    3    1    4 1     
    4    1    5 1     
    5    2    6 ar    
    6    2    7 ar    
    7    3    8 1     
    8    3    9 2     
    9    4   10 1     
   10    4   11 2     
   11    5   12 1     
   12    5   18 1     
   13    5   19 1     
   14    6   13 ar    
   15    6   20 1     
   16    7   14 ar    
   17    7   21 1     
   18    8   15 1     
   19    8   22 1     
   20   10   15 1     
   21   10   23 1     
   22   12   24 1     
   23   12   25 1     
   24   12   26 1     
   25   13   16 ar    
   26   13   27 1     
   27   14   16 ar    
   28   14   28 1     
   29   15   17 2     
   30   16   29 1     
@<TRIPOS>SUBSTRUCTURE
      1 RES1           1
@<TRIPOS>SET
DONOR_HYDROGENS      STATIC     ATOMS    <user>   **** ""
2 22 23
ATOM$RED        STATIC     ATOMS    COLORGROUP SYSTEM
2 22 23
@<TRIPOS>COMMENT
> <Gold.Version>
2022.3.0

> <Gold.Id.Protein>
unknown|7xmr_cavity_clean|pdb

> <Gold.Protein.RotatedTorsions>
[ 5212 5207 5206 5203 ] final  -99.77 input   60.02 | X-H torsion
[ 3657 3648 3647 3646 ] final    8.77 input   60.03 | X-H torsion
[ 4825 4820 4819 4816 ] final -134.95 input   60.00 | X-H torsion
[ 1545 1538 1536 1533 ] final  -96.45 input   60.02 | X-H torsion
[ 4846 4837 4836 4834 ] final  114.33 input   59.98 | X-H torsion
[ 2091 2080 2079 2078 ] final -105.84 input   59.99 | X-H torsion
[ 4874 4867 4865 4862 ] final   44.73 input   60.01 | X-H torsion
[ 3728 3717 3716 3715 ] final  111.37 input   59.98 | X-H torsion
[ 2151 2144 2142 2139 ] final -177.67 input   60.03 | X-H torsion
[ 2175 2168 2166 2163 ] final  -27.48 input   60.03 | X-H torsion
[ 8230 8219 8218 8215 ] final   67.09 input   60.01 | X-H torsion
[ 8231 8220 8221 8222 ] final   83.99 input  100.72 | X-H torsion
[ 8235 8225 8224 8221 ] final -114.80 input   60.01 | X-H torsion
[ 3801 3791 3782 3781 ] final   60.03 input   60.03 | X-H torsion
[ 2186 2181 2180 2177 ] final  161.72 input   60.01 | X-H torsion
[ 3142 3136 3134 3131 ] final   77.74 input   60.00 | X-H torsion
[ 1102 1093 1092 1091 ] final  -85.98 input   60.00 | X-H torsion
[ 3163 3152 3151 3150 ] final   69.52 input   59.99 | X-H torsion
[ 8437 8432 8431 8428 ] final -156.38 input   59.99 | X-H torsion
[ 3220 3211 3210 3208 ] final -178.64 input   60.01 | X-H torsion
[ 5037 5032 5031 5028 ] final  -16.29 input   60.02 | X-H torsion
[  498  487  486  485 ] final  140.00 input   60.00 | X-H torsion
[ 4492 4485 4483 4480 ] final -158.51 input   60.02 | X-H torsion
[ 5177 5168 5167 5165 ] final   -2.34 input   59.98 | X-H torsion
[ 13102 8223 8222 8221 ] final   33.35 input   -0.00 | X-H torsion

> <Gold.Protein.ActiveResidues>
 ASP20   ARG21   LEU23   ARG24   ASP26   GLY27   GLU28   ALA30   ALA31   ARG32  
 GLU33   VAL34   LYS35   GLU186  ASP193  LEU194  HIS195  LYS197  HIS213  CYS214 
 PHE215  GLU216  GLY217  VAL218  THR219  LYS257  TRP258  PHE259  THR260  ASP261 
 THR262  SER263  ARG313  ASP315  THR316  LYS317  GLU318  TYR320  ASP341  VAL342 
 ILE343  LYS345  ASN346  ASN347  LYS349  ASP350  CYS351  PHE354  MET61   HIS62  
 TRP63   GLY64   THR65   ASP66   ARG68   SER84   TYR85   THR87   SER98   TYR105 
 PRO107  SER108  ASN293  ASN295  ARG314  VAL315  SER316  TRP332  ASP333  SER334 
 PHE335 

> <Gold.Protein.RotatedAtoms>
  124.7223  156.2224  122.5742 H   0  0  0  0  0  0  0  0  0  0  0  0  # atno 498  bound_to 487 
  125.7837  157.4227  122.1489 H   0  0  0  0  0  0  0  0  0  0  0  0  # atno 499  bound_to 487 
  125.4442  157.1431  123.7474 H   0  0  0  0  0  0  0  0  0  0  0  0  # atno 500  bound_to 487 
  122.9592  160.9634  119.6031 H   0  0  0  0  0  0  0  0  0  0  0  0  # atno 1102 bound_to 1093
  124.0225  160.1444  118.6304 H   0  0  0  0  0  0  0  0  0  0  0  0  # atno 1103 bound_to 1093
  123.6121  159.5288  120.1136 H   0  0  0  0  0  0  0  0  0  0  0  0  # atno 1104 bound_to 1093
  129.5495  158.0038  127.8771 H   0  0  0  0  0  0  0  0  0  0  0  0  # atno 1545 bound_to 1538
  110.6985  159.0322  142.3540 H   0  0  0  0  0  0  0  0  0  0  0  0  # atno 2091 bound_to 2080
  112.2506  159.4369  141.9362 H   0  0  0  0  0  0  0  0  0  0  0  0  # atno 2092 bound_to 2080
  111.0257  159.5982  140.8306 H   0  0  0  0  0  0  0  0  0  0  0  0  # atno 2093 bound_to 2080
  120.9918  155.5307  141.0058 H   0  0  0  0  0  0  0  0  0  0  0  0  # atno 2151 bound_to 2144
  123.7350  160.7060  136.8729 H   0  0  0  0  0  0  0  0  0  0  0  0  # atno 2175 bound_to 2168
  131.2922  162.5837  135.6277 H   0  0  0  0  0  0  0  0  0  0  0  0  # atno 2186 bound_to 2181
  126.1061  158.8732  143.4205 H   0  0  0  0  0  0  0  0  0  0  0  0  # atno 3142 bound_to 3136
  123.7076  165.0422  141.2786 H   0  0  0  0  0  0  0  0  0  0  0  0  # atno 3163 bound_to 3152
  123.7743  165.0519  139.6224 H   0  0  0  0  0  0  0  0  0  0  0  0  # atno 3164 bound_to 3152
  122.8141  163.9510  140.4070 H   0  0  0  0  0  0  0  0  0  0  0  0  # atno 3165 bound_to 3152
  133.3288  162.1418  137.2287 H   0  0  0  0  0  0  0  0  0  0  0  0  # atno 3220 bound_to 3211
  137.3038  157.2492  140.2389 H   0  0  0  0  0  0  0  0  0  0  0  0  # atno 3657 bound_to 3648
  138.6518  158.2118  140.2933 H   0  0  0  0  0  0  0  0  0  0  0  0  # atno 3658 bound_to 3648
  137.4420  158.4168  141.4081 H   0  0  0  0  0  0  0  0  0  0  0  0  # atno 3659 bound_to 3648
  129.0715  152.9428  141.3553 H   0  0  0  0  0  0  0  0  0  0  0  0  # atno 3728 bound_to 3717
  129.2616  151.3921  140.8018 H   0  0  0  0  0  0  0  0  0  0  0  0  # atno 3729 bound_to 3717
  130.5923  152.3226  141.1361 H   0  0  0  0  0  0  0  0  0  0  0  0  # atno 3730 bound_to 3717
  134.2690  151.9590  143.4680 H   0  0  0  0  0  0  0  0  0  0  0  0  # atno 3801 bound_to 3791
   94.0673  146.8299  111.0589 H   0  0  0  0  0  0  0  0  0  0  0  0  # atno 4492 bound_to 4485
  102.6166  139.6630  118.6190 H   0  0  0  0  0  0  0  0  0  0  0  0  # atno 4825 bound_to 4820
   98.0848  136.9648  115.5294 H   0  0  0  0  0  0  0  0  0  0  0  0  # atno 4846 bound_to 4837
  108.3559  134.6974  118.2442 H   0  0  0  0  0  0  0  0  0  0  0  0  # atno 4874 bound_to 4867
  118.7298  160.7862  119.9353 H   0  0  0  0  0  0  0  0  0  0  0  0  # atno 5037 bound_to 5032
  103.4494  146.9296  110.5096 H   0  0  0  0  0  0  0  0  0  0  0  0  # atno 5177 bound_to 5168
   95.4485  152.1944  107.6413 H   0  0  0  0  0  0  0  0  0  0  0  0  # atno 5212 bound_to 5207
  107.7502  150.9414  128.0107 H   0  0  0  0  0  0  0  0  0  0  0  0  # atno 8230 bound_to 8219
  132.3946  142.1627  143.4739 H   0  0  0  0  0  0  0  0  0  0  0  0  # atno 8231 bound_to 8220
  130.5488  143.3519  139.9757 H   0  0  0  0  0  0  0  0  0  0  0  0  # atno 8235 bound_to 8225
  118.6627  146.6578  126.6915 H   0  0  0  0  0  0  0  0  0  0  0  0  # atno 8437 bound_to 8432
   96.5212  151.8506  106.4664 LP  0  0  0  0  0  0  0  0  0  0  0  0  # atno 13008 bound_to 5207
   96.8162  151.3906  108.0052 LP  0  0  0  0  0  0  0  0  0  0  0  0  # atno 13009 bound_to 5207
  102.4161  138.0482  118.6091 LP  0  0  0  0  0  0  0  0  0  0  0  0  # atno 13018 bound_to 4820
  103.0792  138.7995  117.3197 LP  0  0  0  0  0  0  0  0  0  0  0  0  # atno 13019 bound_to 4820
  129.0131  159.0094  126.7157 LP  0  0  0  0  0  0  0  0  0  0  0  0  # atno 13022 bound_to 1538
  127.9671  158.3747  127.7971 LP  0  0  0  0  0  0  0  0  0  0  0  0  # atno 13023 bound_to 1538
   98.1097  136.1481  116.9368 LP  0  0  0  0  0  0  0  0  0  0  0  0  # atno 13035 bound_to 4837
   97.6527  135.3962  115.5611 LP  0  0  0  0  0  0  0  0  0  0  0  0  # atno 13036 bound_to 4837
  108.9285  135.7133  119.3797 LP  0  0  0  0  0  0  0  0  0  0  0  0  # atno 13051 bound_to 4867
  109.2515  134.1153  119.4722 LP  0  0  0  0  0  0  0  0  0  0  0  0  # atno 13052 bound_to 4867
  122.4003  155.9412  140.3024 LP  0  0  0  0  0  0  0  0  0  0  0  0  # atno 13069 bound_to 2144
  120.9942  156.5496  139.7373 LP  0  0  0  0  0  0  0  0  0  0  0  0  # atno 13070 bound_to 2144
  123.0016  161.1046  135.4757 LP  0  0  0  0  0  0  0  0  0  0  0  0  # atno 13095 bound_to 2168
  124.0333  162.1516  136.1871 LP  0  0  0  0  0  0  0  0  0  0  0  0  # atno 13096 bound_to 2168
  108.6247  150.1316  129.1186 LP  0  0  0  0  0  0  0  0  0  0  0  0  # atno 13099 bound_to 8219
  109.3085  151.3393  128.2580 LP  0  0  0  0  0  0  0  0  0  0  0  0  # atno 13100 bound_to 8219
  133.5172  143.3718  144.0501 LP  0  0  0  0  0  0  0  0  0  0  0  0  # atno 13101 bound_to 8220
  130.7372  143.8512  144.3021 LP  0  0  0  0  0  0  0  0  0  0  0  0  # atno 13102 bound_to 8223
  129.4205  144.5252  143.4010 LP  0  0  0  0  0  0  0  0  0  0  0  0  # atno 13103 bound_to 8223
  131.8738  143.9129  139.2157 LP  0  0  0  0  0  0  0  0  0  0  0  0  # atno 13104 bound_to 8225
  131.2195  144.7560  140.4517 LP  0  0  0  0  0  0  0  0  0  0  0  0  # atno 13105 bound_to 8225
  133.2385  150.7924  143.6727 LP  0  0  0  0  0  0  0  0  0  0  0  0  # atno 13110 bound_to 3791
  129.8516  163.1503  135.1274 LP  0  0  0  0  0  0  0  0  0  0  0  0  # atno 13119 bound_to 2181
  130.0817  161.5440  135.3104 LP  0  0  0  0  0  0  0  0  0  0  0  0  # atno 13120 bound_to 2181
  126.7259  158.3817  144.8425 LP  0  0  0  0  0  0  0  0  0  0  0  0  # atno 13129 bound_to 3136
  125.4837  157.5667  144.1647 LP  0  0  0  0  0  0  0  0  0  0  0  0  # atno 13130 bound_to 3136
  117.9879  145.1776  126.6591 LP  0  0  0  0  0  0  0  0  0  0  0  0  # atno 13157 bound_to 8432
  117.5318  146.2615  127.7922 LP  0  0  0  0  0  0  0  0  0  0  0  0  # atno 13158 bound_to 8432
  134.3543  162.2501  138.4875 LP  0  0  0  0  0  0  0  0  0  0  0  0  # atno 13185 bound_to 3211
  134.9347  162.1320  136.9657 LP  0  0  0  0  0  0  0  0  0  0  0  0  # atno 13186 bound_to 3211
  120.1829  160.0698  119.7854 LP  0  0  0  0  0  0  0  0  0  0  0  0  # atno 13193 bound_to 5032
  119.3664  159.9793  121.1967 LP  0  0  0  0  0  0  0  0  0  0  0  0  # atno 13194 bound_to 5032
   94.5566  145.2778  111.0694 LP  0  0  0  0  0  0  0  0  0  0  0  0  # atno 13199 bound_to 4485
   95.3902  146.4054  111.9063 LP  0  0  0  0  0  0  0  0  0  0  0  0  # atno 13200 bound_to 4485
  102.0229  147.2156  109.7805 LP  0  0  0  0  0  0  0  0  0  0  0  0  # atno 13215 bound_to 5168
  102.1890  145.9370  110.7826 LP  0  0  0  0  0  0  0  0  0  0  0  0  # atno 13216 bound_to 5168

> <Gold.Score>
     Fitness  S(hb_ext) S(vdw_ext)  S(hb_int)    S(int)      intcor
     32.60       0.32      24.22       0.00      -1.01      -0.76

> <Gold.Goldscore.Fitness>
32.6050

> <Gold.Goldscore.Internal.Vdw>
-1.2021

> <Gold.Goldscore.Internal.Torsion>
-0.5747

> <Gold.Goldscore.External.Vdw>
24.2174

> <Gold.Goldscore.Internal.HBond>
0.0000

> <Gold.Goldscore.External.HBond>
0.3180

> <Gold.Goldscore.Internal.Correction>
-0.7650

> <Gold.Goldscore.Hbonds>
donor molecule, donor type, donor heavy atom, donor atom, acceptor molecule, acceptor atom, score
      L1  H    10    23       P1  1512  0.16

> <Gold.Goldscore.Internal.Vdw.Weighted>
-1.2021

> <Gold.Goldscore.Internal.Torsion.Weighted>
-0.5747

> <Gold.Goldscore.External.Vdw.Weighted>
33.2989

> <Gold.Goldscore.Internal.HBond.Weighted>
0.0000

> <Gold.Goldscore.External.HBond.Weighted>
0.3180

> <Gold.Goldscore.Internal.Correction.Weighted>
-0.7650

> <Gold.Rescore>
     Score     S(PLP)   S(hbond)     S(cho)   S(metal)  DE(clash)   DE(tors)     intcor
     28.18     -27.48       0.98       0.00       0.00       1.35       0.44       ----

> <Gold.PLP.Fitness>
28.1821

> <Gold.PLP.PLP>
-27.4802

> <Gold.PLP.part.hbond>
-1.0000

> <Gold.PLP.part.metal>
0.0000

> <Gold.PLP.part.buried>
0.6348

> <Gold.PLP.part.nonpolar>
-28.8044

> <Gold.PLP.part.repulsive>
0.3960

> <Gold.PLP.ligand.clash>
1.3487

> <Gold.PLP.ligand.torsion>
0.4387

> <Gold.PLP.Chemscore.Hbond>
0.9760

> <Gold.PLP.Chemscore.CHOScore>
0.0000

> <Gold.PLP.Chemscore.Metal>
0.0000

> <Gold.Chemscore.Hbonds>
donor molecule, donor type, donor heavy atom, donor atom, acceptor molecule, acceptor atom, score
      L1  H    10    23       P1  1512  1.00

> <Gold.PLP.Chemscore.Internal.Correction>
   9.000000E+99

