#       Name:                CT1002167954
#       Creating user name   hitesit
#       Creation time:       Sun Apr 16 02:23:14 2023


#       File generated by GOLD software.
#

@<TRIPOS>MOLECULE
CT1002167954|ligand_prepared|mol2|1|dock10
    29    30     1
SMALL
NO_CHARGES


@<TRIPOS>ATOM
      1 C1         121.0727 154.5900 126.2020 C.3            1 RES1               0.0000
      2 C2         121.4279 154.1722 124.7604 C.ar           1 RES1               0.0000
      3 C3         122.3986 154.7600 126.9377 C.2            1 RES1               0.0000
      4 C4         120.2569 155.8728 126.0856 C.2            1 RES1               0.0000
      5 C5         120.2192 153.5483 126.9621 C.3            1 RES1               0.0000
      6 C6         121.4768 152.8279 124.4039 C.ar           1 RES1               0.0000
      7 C7         121.7060 155.1181 123.7772 C.ar           1 RES1               0.0000
      8 N8         122.8127 156.0310 127.2082 N.am           1 RES1               0.0000
      9 O9         123.0894 153.7951 127.2410 O.2            1 RES1               0.0000
     10 N10        120.7989 157.0264 126.5888 N.am           1 RES1               0.0000
     11 O11        119.1567 155.8982 125.5478 O.2            1 RES1               0.0000
     12 C12        119.5722 154.0909 128.2266 C.3            1 RES1               0.0000
     13 C13        121.7895 152.4430 123.1107 C.ar           1 RES1               0.0000
     14 C14        122.0186 154.7310 122.4845 C.ar           1 RES1               0.0000
     15 C15        122.0529 157.1694 127.1173 C.2            1 RES1               0.0000
     16 C16        122.0601 153.3942 122.1501 C.ar           1 RES1               0.0000
     17 O17        122.4898 158.2513 127.4991 O.2            1 RES1               0.0000
     18 H18        119.4320 153.1805 126.2924 H              1 RES1               0.0000
     19 H19        120.8569 152.6966 127.2293 H              1 RES1               0.0000
     20 H20        121.2692 152.0651 125.1469 H              1 RES1               0.0000
     21 H21        121.6803 156.1755 124.0178 H              1 RES1               0.0000
     22 H22        123.7765 156.1455 127.5054 H              1 RES1               0.0000
     23 H23        120.2133 157.8552 126.5676 H              1 RES1               0.0000
     24 H24        118.9852 153.3197 128.7210 H              1 RES1               0.0000
     25 H25        120.3277 154.4424 128.9262 H              1 RES1               0.0000
     26 H26        118.9112 154.9235 127.9949 H              1 RES1               0.0000
     27 H27        121.8221 151.3896 122.8529 H              1 RES1               0.0000
     28 H28        122.2315 155.4830 121.7319 H              1 RES1               0.0000
     29 H29        122.3046 153.0924 121.1370 H              1 RES1               0.0000
@<TRIPOS>BOND
    1    1    2 1     
    2    1    3 1     
    3    1    4 1     
    4    1    5 1     
    5    2    6 ar    
    6    2    7 ar    
    7    3    8 1     
    8    3    9 2     
    9    4   10 1     
   10    4   11 2     
   11    5   12 1     
   12    5   18 1     
   13    5   19 1     
   14    6   13 ar    
   15    6   20 1     
   16    7   14 ar    
   17    7   21 1     
   18    8   15 1     
   19    8   22 1     
   20   10   15 1     
   21   10   23 1     
   22   12   24 1     
   23   12   25 1     
   24   12   26 1     
   25   13   16 ar    
   26   13   27 1     
   27   14   16 ar    
   28   14   28 1     
   29   15   17 2     
   30   16   29 1     
@<TRIPOS>SUBSTRUCTURE
      1 RES1           1
@<TRIPOS>SET
DONOR_HYDROGENS      STATIC     ATOMS    <user>   **** ""
2 22 23
ATOM$RED        STATIC     ATOMS    COLORGROUP SYSTEM
2 22 23
@<TRIPOS>COMMENT
> <Gold.Version>
2022.3.0

> <Gold.Id.Protein>
unknown|7xmr_cavity_clean|pdb

> <Gold.Protein.RotatedTorsions>
[ 5212 5207 5206 5203 ] final  159.73 input   60.02 | X-H torsion
[ 3657 3648 3647 3646 ] final -145.99 input   60.03 | X-H torsion
[ 4825 4820 4819 4816 ] final   21.54 input   60.00 | X-H torsion
[ 1545 1538 1536 1533 ] final  -89.36 input   60.02 | X-H torsion
[ 4846 4837 4836 4834 ] final -111.83 input   59.98 | X-H torsion
[ 2091 2080 2079 2078 ] final  -21.49 input   59.99 | X-H torsion
[ 4874 4867 4865 4862 ] final  -28.73 input   60.01 | X-H torsion
[ 3728 3717 3716 3715 ] final  -92.64 input   59.98 | X-H torsion
[ 2151 2144 2142 2139 ] final -117.56 input   60.03 | X-H torsion
[ 2175 2168 2166 2163 ] final    7.34 input   60.03 | X-H torsion
[ 8230 8219 8218 8215 ] final  162.58 input   60.01 | X-H torsion
[ 8231 8220 8221 8222 ] final   31.96 input  100.72 | X-H torsion
[ 8235 8225 8224 8221 ] final -125.63 input   60.01 | X-H torsion
[ 3801 3791 3782 3781 ] final   60.03 input   60.03 | X-H torsion
[ 2186 2181 2180 2177 ] final  125.18 input   60.01 | X-H torsion
[ 3142 3136 3134 3131 ] final   -7.92 input   60.00 | X-H torsion
[ 1102 1093 1092 1091 ] final -166.64 input   60.00 | X-H torsion
[ 3163 3152 3151 3150 ] final   85.53 input   59.99 | X-H torsion
[ 8437 8432 8431 8428 ] final  -12.63 input   59.99 | X-H torsion
[ 3220 3211 3210 3208 ] final  -49.27 input   60.01 | X-H torsion
[ 5037 5032 5031 5028 ] final -143.41 input   60.02 | X-H torsion
[  498  487  486  485 ] final -151.17 input   60.00 | X-H torsion
[ 4492 4485 4483 4480 ] final    5.22 input   60.02 | X-H torsion
[ 5177 5168 5167 5165 ] final  -81.74 input   59.98 | X-H torsion
[ 13102 8223 8222 8221 ] final  -81.85 input   -0.00 | X-H torsion

> <Gold.Protein.ActiveResidues>
 ASP20   ARG21   LEU23   ARG24   ASP26   GLY27   GLU28   ALA30   ALA31   ARG32  
 GLU33   VAL34   LYS35   GLU186  ASP193  LEU194  HIS195  LYS197  HIS213  CYS214 
 PHE215  GLU216  GLY217  VAL218  THR219  LYS257  TRP258  PHE259  THR260  ASP261 
 THR262  SER263  ARG313  ASP315  THR316  LYS317  GLU318  TYR320  ASP341  VAL342 
 ILE343  LYS345  ASN346  ASN347  LYS349  ASP350  CYS351  PHE354  MET61   HIS62  
 TRP63   GLY64   THR65   ASP66   ARG68   SER84   TYR85   THR87   SER98   TYR105 
 PRO107  SER108  ASN293  ASN295  ARG314  VAL315  SER316  TRP332  ASP333  SER334 
 PHE335 

> <Gold.Protein.RotatedAtoms>
  125.2843  156.8243  121.8732 H   0  0  0  0  0  0  0  0  0  0  0  0  # atno 498  bound_to 487 
  125.8747  157.6037  123.2120 H   0  0  0  0  0  0  0  0  0  0  0  0  # atno 499  bound_to 487 
  124.7916  156.3606  123.3856 H   0  0  0  0  0  0  0  0  0  0  0  0  # atno 500  bound_to 487 
  123.2052  159.9837  120.3189 H   0  0  0  0  0  0  0  0  0  0  0  0  # atno 1102 bound_to 1093
  123.2384  161.0190  119.0248 H   0  0  0  0  0  0  0  0  0  0  0  0  # atno 1103 bound_to 1093
  124.1498  159.6347  119.0032 H   0  0  0  0  0  0  0  0  0  0  0  0  # atno 1104 bound_to 1093
  129.4701  157.9624  127.9505 H   0  0  0  0  0  0  0  0  0  0  0  0  # atno 1545 bound_to 1538
  111.9671  159.2305  142.4058 H   0  0  0  0  0  0  0  0  0  0  0  0  # atno 2091 bound_to 2080
  111.6043  159.6892  140.8548 H   0  0  0  0  0  0  0  0  0  0  0  0  # atno 2092 bound_to 2080
  110.4035  159.1471  141.8613 H   0  0  0  0  0  0  0  0  0  0  0  0  # atno 2093 bound_to 2080
  120.5285  156.0720  140.3965 H   0  0  0  0  0  0  0  0  0  0  0  0  # atno 2151 bound_to 2144
  124.0472  161.1586  136.9817 H   0  0  0  0  0  0  0  0  0  0  0  0  # atno 2175 bound_to 2168
  131.0403  163.1009  135.5122 H   0  0  0  0  0  0  0  0  0  0  0  0  # atno 2186 bound_to 2181
  126.8168  158.7852  144.4729 H   0  0  0  0  0  0  0  0  0  0  0  0  # atno 3142 bound_to 3136
  123.8498  165.2034  141.1209 H   0  0  0  0  0  0  0  0  0  0  0  0  # atno 3163 bound_to 3152
  123.6187  164.8638  139.5150 H   0  0  0  0  0  0  0  0  0  0  0  0  # atno 3164 bound_to 3152
  122.8275  163.9779  140.6720 H   0  0  0  0  0  0  0  0  0  0  0  0  # atno 3165 bound_to 3152
  135.0162  162.1457  137.0952 H   0  0  0  0  0  0  0  0  0  0  0  0  # atno 3220 bound_to 3211
  137.9489  158.6512  141.2900 H   0  0  0  0  0  0  0  0  0  0  0  0  # atno 3657 bound_to 3648
  136.9932  157.4431  140.6786 H   0  0  0  0  0  0  0  0  0  0  0  0  # atno 3658 bound_to 3648
  138.4538  157.7820  139.9713 H   0  0  0  0  0  0  0  0  0  0  0  0  # atno 3659 bound_to 3648
  129.8498  151.3399  140.7840 H   0  0  0  0  0  0  0  0  0  0  0  0  # atno 3728 bound_to 3717
  130.3460  152.8291  141.3164 H   0  0  0  0  0  0  0  0  0  0  0  0  # atno 3729 bound_to 3717
  128.7282  152.4889  141.1929 H   0  0  0  0  0  0  0  0  0  0  0  0  # atno 3730 bound_to 3717
  134.2690  151.9590  143.4680 H   0  0  0  0  0  0  0  0  0  0  0  0  # atno 3801 bound_to 3791
   95.3806  145.7220  111.7553 H   0  0  0  0  0  0  0  0  0  0  0  0  # atno 4492 bound_to 4485
  102.9384  138.2545  117.4908 H   0  0  0  0  0  0  0  0  0  0  0  0  # atno 4825 bound_to 4820
   97.6696  135.3101  115.7700 H   0  0  0  0  0  0  0  0  0  0  0  0  # atno 4846 bound_to 4837
  108.5285  135.6794  118.7550 H   0  0  0  0  0  0  0  0  0  0  0  0  # atno 4874 bound_to 4867
  120.2160  160.0130  119.8820 H   0  0  0  0  0  0  0  0  0  0  0  0  # atno 5037 bound_to 5032
  102.6261  147.4593  109.8221 H   0  0  0  0  0  0  0  0  0  0  0  0  # atno 5177 bound_to 5168
   96.2410  152.0011  106.4543 H   0  0  0  0  0  0  0  0  0  0  0  0  # atno 5212 bound_to 5207
  109.0264  151.4815  128.0145 H   0  0  0  0  0  0  0  0  0  0  0  0  # atno 8230 bound_to 8219
  132.1104  142.6770  143.9800 H   0  0  0  0  0  0  0  0  0  0  0  0  # atno 8231 bound_to 8220
  130.6312  143.2727  139.8409 H   0  0  0  0  0  0  0  0  0  0  0  0  # atno 8235 bound_to 8225
  117.4217  145.8989  127.7155 H   0  0  0  0  0  0  0  0  0  0  0  0  # atno 8437 bound_to 8432
   96.9918  151.3477  107.7422 LP  0  0  0  0  0  0  0  0  0  0  0  0  # atno 13008 bound_to 5207
   95.5477  152.0881  107.9243 LP  0  0  0  0  0  0  0  0  0  0  0  0  # atno 13009 bound_to 5207
  102.8588  139.7643  118.0926 LP  0  0  0  0  0  0  0  0  0  0  0  0  # atno 13018 bound_to 4820
  102.3125  138.5017  118.9724 LP  0  0  0  0  0  0  0  0  0  0  0  0  # atno 13019 bound_to 4820
  129.1249  158.9785  126.7272 LP  0  0  0  0  0  0  0  0  0  0  0  0  # atno 13022 bound_to 1538
  127.9353  158.4473  127.7117 LP  0  0  0  0  0  0  0  0  0  0  0  0  # atno 13023 bound_to 1538
   98.0159  136.8439  115.3506 LP  0  0  0  0  0  0  0  0  0  0  0  0  # atno 13035 bound_to 4837
   98.1644  136.3662  116.9051 LP  0  0  0  0  0  0  0  0  0  0  0  0  # atno 13036 bound_to 4837
  109.3663  134.7682  119.8119 LP  0  0  0  0  0  0  0  0  0  0  0  0  # atno 13051 bound_to 4867
  108.6399  134.0719  118.5258 LP  0  0  0  0  0  0  0  0  0  0  0  0  # atno 13052 bound_to 4867
  121.9260  155.4608  140.9627 LP  0  0  0  0  0  0  0  0  0  0  0  0  # atno 13069 bound_to 2144
  121.9352  156.4847  139.6907 LP  0  0  0  0  0  0  0  0  0  0  0  0  # atno 13070 bound_to 2144
  123.0083  160.6656  135.8300 LP  0  0  0  0  0  0  0  0  0  0  0  0  # atno 13095 bound_to 2168
  123.7124  162.1351  135.7233 LP  0  0  0  0  0  0  0  0  0  0  0  0  # atno 13096 bound_to 2168
  107.6546  150.6393  128.2530 LP  0  0  0  0  0  0  0  0  0  0  0  0  # atno 13099 bound_to 8219
  108.9933  150.2876  129.1197 LP  0  0  0  0  0  0  0  0  0  0  0  0  # atno 13100 bound_to 8219
  133.7948  142.8694  143.5557 LP  0  0  0  0  0  0  0  0  0  0  0  0  # atno 13101 bound_to 8220
  129.7126  143.6530  143.2776 LP  0  0  0  0  0  0  0  0  0  0  0  0  # atno 13102 bound_to 8223
  130.4451  144.7234  144.4255 LP  0  0  0  0  0  0  0  0  0  0  0  0  # atno 13103 bound_to 8223
  131.9355  144.0672  139.2793 LP  0  0  0  0  0  0  0  0  0  0  0  0  # atno 13104 bound_to 8225
  131.0749  144.6814  140.5238 LP  0  0  0  0  0  0  0  0  0  0  0  0  # atno 13105 bound_to 8225
  133.2385  150.7924  143.6727 LP  0  0  0  0  0  0  0  0  0  0  0  0  # atno 13110 bound_to 3791
  129.5429  162.6503  135.0633 LP  0  0  0  0  0  0  0  0  0  0  0  0  # atno 13119 bound_to 2181
  130.6442  161.5230  135.4910 LP  0  0  0  0  0  0  0  0  0  0  0  0  # atno 13120 bound_to 2181
  125.7947  157.5283  144.6251 LP  0  0  0  0  0  0  0  0  0  0  0  0  # atno 13129 bound_to 3136
  125.6995  158.5087  143.3226 LP  0  0  0  0  0  0  0  0  0  0  0  0  # atno 13130 bound_to 3136
  118.5113  146.8605  126.9839 LP  0  0  0  0  0  0  0  0  0  0  0  0  # atno 13157 bound_to 8432
  118.2586  145.3432  126.4357 LP  0  0  0  0  0  0  0  0  0  0  0  0  # atno 13158 bound_to 8432
  133.3890  162.1284  137.0879 LP  0  0  0  0  0  0  0  0  0  0  0  0  # atno 13185 bound_to 3211
  134.2008  162.2498  138.4996 LP  0  0  0  0  0  0  0  0  0  0  0  0  # atno 13186 bound_to 3211
  119.2627  160.0332  121.2004 LP  0  0  0  0  0  0  0  0  0  0  0  0  # atno 13193 bound_to 5032
  118.7897  160.7946  119.8354 LP  0  0  0  0  0  0  0  0  0  0  0  0  # atno 13194 bound_to 5032
   94.5654  147.1012  111.4689 LP  0  0  0  0  0  0  0  0  0  0  0  0  # atno 13199 bound_to 4485
   94.0592  145.6974  110.8057 LP  0  0  0  0  0  0  0  0  0  0  0  0  # atno 13200 bound_to 4485
  101.7387  146.2267  110.4066 LP  0  0  0  0  0  0  0  0  0  0  0  0  # atno 13215 bound_to 5168
  103.3020  146.3926  110.8486 LP  0  0  0  0  0  0  0  0  0  0  0  0  # atno 13216 bound_to 5168

> <Gold.Score>
     Fitness  S(hb_ext) S(vdw_ext)  S(hb_int)    S(int)      intcor
     32.70       0.02      24.21       0.00      -0.61      -0.76

> <Gold.Goldscore.Fitness>
32.7048

> <Gold.Goldscore.Internal.Vdw>
-0.6778

> <Gold.Goldscore.Internal.Torsion>
-0.7001

> <Gold.Goldscore.External.Vdw>
24.2147

> <Gold.Goldscore.Internal.HBond>
0.0000

> <Gold.Goldscore.External.HBond>
0.0225

> <Gold.Goldscore.Internal.Correction>
-0.7650

> <Gold.Goldscore.Hbonds>
donor molecule, donor type, donor heavy atom, donor atom, acceptor molecule, acceptor atom, score
      L1  H     8    22       P1  1512  0.01

> <Gold.Goldscore.Internal.Vdw.Weighted>
-0.6778

> <Gold.Goldscore.Internal.Torsion.Weighted>
-0.7001

> <Gold.Goldscore.External.Vdw.Weighted>
33.2952

> <Gold.Goldscore.Internal.HBond.Weighted>
0.0000

> <Gold.Goldscore.External.HBond.Weighted>
0.0225

> <Gold.Goldscore.Internal.Correction.Weighted>
-0.7650

> <Gold.Rescore>
     Score     S(PLP)   S(hbond)     S(cho)   S(metal)  DE(clash)   DE(tors)     intcor
     25.52     -28.32       0.03       0.00       0.00       0.00       1.44       ----

> <Gold.PLP.Fitness>
25.5240

> <Gold.PLP.PLP>
-28.3167

> <Gold.PLP.part.hbond>
-1.2709

> <Gold.PLP.part.metal>
0.0000

> <Gold.PLP.part.buried>
-0.5205

> <Gold.PLP.part.nonpolar>
-27.5634

> <Gold.PLP.part.repulsive>
0.3809

> <Gold.PLP.ligand.clash>
0.0000

> <Gold.PLP.ligand.torsion>
1.4432

> <Gold.PLP.Chemscore.Hbond>
0.0312

> <Gold.PLP.Chemscore.CHOScore>
0.0000

> <Gold.PLP.Chemscore.Metal>
0.0000

> <Gold.Chemscore.Hbonds>
donor molecule, donor type, donor heavy atom, donor atom, acceptor molecule, acceptor atom, score
      L1  H     8    22       P1  1512  0.66

> <Gold.PLP.Chemscore.Internal.Correction>
   9.000000E+99

