#       Name:                CT1002167954
#       Creating user name   hitesit
#       Creation time:       Sun Apr 16 02:21:27 2023


#       File generated by GOLD software.
#

@<TRIPOS>MOLECULE
CT1002167954|ligand_prepared|mol2|1|dock9
    29    30     1
SMALL
NO_CHARGES


@<TRIPOS>ATOM
      1 C1         -29.6612   7.9762  12.2777 C.3            1 RES1               0.0000
      2 C2         -30.3007   8.7424  11.1018 C.ar           1 RES1               0.0000
      3 C3         -28.1611   7.9407  12.0008 C.2            1 RES1               0.0000
      4 C4         -30.0426   8.7389  13.5416 C.2            1 RES1               0.0000
      5 C5         -30.1680   6.5226  12.4256 C.3            1 RES1               0.0000
      6 C6         -31.6839   8.8532  10.9967 C.ar           1 RES1               0.0000
      7 C7         -29.5217   9.3450  10.1175 C.ar           1 RES1               0.0000
      8 N8         -27.3607   8.7506  12.7512 N.am           1 RES1               0.0000
      9 O9         -27.6920   7.2421  11.1107 O.2            1 RES1               0.0000
     10 N10        -29.0402   9.3438  14.2536 N.am           1 RES1               0.0000
     11 O11        -31.2041   8.8356  13.9182 O.2            1 RES1               0.0000
     12 C12        -29.5620   5.7792  13.6055 C.3            1 RES1               0.0000
     13 C13        -32.2673   9.5438   9.9474 C.ar           1 RES1               0.0000
     14 C14        -30.1071  10.0350   9.0689 C.ar           1 RES1               0.0000
     15 C15        -27.7203   9.4101  13.8990 C.2            1 RES1               0.0000
     16 C16        -31.4794  10.1355   8.9832 C.ar           1 RES1               0.0000
     17 O17        -26.8872  10.0195  14.5636 O.2            1 RES1               0.0000
     18 H18        -31.2588   6.5390  12.5410 H              1 RES1               0.0000
     19 H19        -29.9364   5.9726  11.5052 H              1 RES1               0.0000
     20 H20        -32.3202   8.3920  11.7448 H              1 RES1               0.0000
     21 H21        -28.4400   9.2779  10.1640 H              1 RES1               0.0000
     22 H22        -26.4065   8.8777  12.4292 H              1 RES1               0.0000
     23 H23        -29.3022   9.7855  15.1292 H              1 RES1               0.0000
     24 H24        -29.9512   4.7648  13.6633 H              1 RES1               0.0000
     25 H25        -28.4797   5.7219  13.5108 H              1 RES1               0.0000
     26 H26        -29.7941   6.2850  14.5405 H              1 RES1               0.0000
     27 H27        -33.3478   9.6188   9.8837 H              1 RES1               0.0000
     28 H28        -29.4832  10.4985   8.3119 H              1 RES1               0.0000
     29 H29        -31.9367  10.6768   8.1615 H              1 RES1               0.0000
@<TRIPOS>BOND
    1    1    2 1     
    2    1    3 1     
    3    1    4 1     
    4    1    5 1     
    5    2    6 ar    
    6    2    7 ar    
    7    3    8 1     
    8    3    9 2     
    9    4   10 1     
   10    4   11 2     
   11    5   12 1     
   12    5   18 1     
   13    5   19 1     
   14    6   13 ar    
   15    6   20 1     
   16    7   14 ar    
   17    7   21 1     
   18    8   15 1     
   19    8   22 1     
   20   10   15 1     
   21   10   23 1     
   22   12   24 1     
   23   12   25 1     
   24   12   26 1     
   25   13   16 ar    
   26   13   27 1     
   27   14   16 ar    
   28   14   28 1     
   29   15   17 2     
   30   16   29 1     
@<TRIPOS>SUBSTRUCTURE
      1 RES1           1
@<TRIPOS>SET
DONOR_HYDROGENS      STATIC     ATOMS    <user>   **** ""
2 22 23
ATOM$RED        STATIC     ATOMS    COLORGROUP SYSTEM
2 22 23
@<TRIPOS>COMMENT
> <Gold.Version>
2022.3.0

> <Gold.Id.Protein>
unknown|5n23_clean|pdb

> <Gold.Protein.RotatedTorsions>
[  719  714  712  709 ] final  -75.41 input   60.03 | X-H torsion
[ 5218 5209 5208 5206 ] final  120.67 input   59.98 | X-H torsion
[ 1928 1919 1918 1916 ] final -107.61 input   60.02 | X-H torsion
[ 2029 2024 2023 2020 ] final  165.16 input   60.01 | X-H torsion
[ 2612 2610 2609 2607 ] final  149.34 input   60.02 | X-H torsion
[ 2694 2683 2682 2681 ] final   86.89 input   59.97 | X-H torsion

> <Gold.Protein.ActiveResidues>
 ARG47   THR48   LEU49   GLY50   THR51   GLY52   SER53   PHE54   GLY55   ARG56  
 VAL57   MET58   LEU59   HIS68   TYR69   ALA70   MET71   LYS72   ILE73   GLU91  
 GLN95   VAL104  LYS105  MET118  VAL119  LEU120  GLU121  TYR122  ALA123  PRO124 
 GLY125  GLY126  GLU127  MET128  PHE129  SER130  HIS131  ARG134  TYR164  ASP166 
 LYS168  GLU170  ASN171  LEU172  LEU173  ILE174  ASP175  LYS181  VAL182  ALA183 
 ASP184  PHE185  GLY186  PRO316  ASN326  PHE327  ASP328  ASP329  TYR330 

> <Gold.Protein.RotatedAtoms>
  -20.4471   13.4234    7.3093 H   0  0  0  0  0  0  0  0  0  0  0  0  # atno 719  bound_to 714 
  -35.1827   10.9516   10.6112 H   0  0  0  0  0  0  0  0  0  0  0  0  # atno 1928 bound_to 1919
  -26.2354    5.6888   11.7281 H   0  0  0  0  0  0  0  0  0  0  0  0  # atno 2029 bound_to 2024
  -26.0902    2.0388   -2.3127 H   0  0  0  0  0  0  0  0  0  0  0  0  # atno 2612 bound_to 2610
  -18.6686    3.7076   -0.0765 H   0  0  0  0  0  0  0  0  0  0  0  0  # atno 2694 bound_to 2683
  -19.2671    4.8730    0.9390 H   0  0  0  0  0  0  0  0  0  0  0  0  # atno 2695 bound_to 2683
  -18.5082    3.5391    1.5645 H   0  0  0  0  0  0  0  0  0  0  0  0  # atno 2696 bound_to 2683
  -22.5472   13.3002    9.4138 H   0  0  0  0  0  0  0  0  0  0  0  0  # atno 5218 bound_to 5209
  -18.9806   13.7562    6.6868 LP  0  0  0  0  0  0  0  0  0  0  0  0  # atno 5588 bound_to 714 
  -19.9717   12.7020    5.9300 LP  0  0  0  0  0  0  0  0  0  0  0  0  # atno 5589 bound_to 714 
  -23.3551   12.7037   10.6940 LP  0  0  0  0  0  0  0  0  0  0  0  0  # atno 5592 bound_to 5209
  -21.7271   12.8237   10.7359 LP  0  0  0  0  0  0  0  0  0  0  0  0  # atno 5593 bound_to 5209
  -35.7290   12.4646   10.8580 LP  0  0  0  0  0  0  0  0  0  0  0  0  # atno 5612 bound_to 1919
  -34.1898   12.2184   10.3712 LP  0  0  0  0  0  0  0  0  0  0  0  0  # atno 5613 bound_to 1919
  -25.3188    4.6155   10.9192 LP  0  0  0  0  0  0  0  0  0  0  0  0  # atno 5627 bound_to 2024
  -24.7904    5.2459   12.3299 LP  0  0  0  0  0  0  0  0  0  0  0  0  # atno 5628 bound_to 2024
  -26.8542    3.2436   -3.0963 LP  0  0  0  0  0  0  0  0  0  0  0  0  # atno 5649 bound_to 2610
  -25.2224    3.1817   -3.0808 LP  0  0  0  0  0  0  0  0  0  0  0  0  # atno 5650 bound_to 2610

> <Gold.Score>
     Fitness  S(hb_ext) S(vdw_ext)  S(hb_int)    S(int)      intcor
     33.42       4.00      23.00       0.00      -2.20      -0.76

> <Gold.Goldscore.Fitness>
33.4172

> <Gold.Goldscore.Internal.Vdw>
-2.5902

> <Gold.Goldscore.Internal.Torsion>
-0.3701

> <Gold.Goldscore.External.Vdw>
22.9968

> <Gold.Goldscore.Internal.HBond>
0.0000

> <Gold.Goldscore.External.HBond>
3.9983

> <Gold.Goldscore.Internal.Correction>
-0.7585

> <Gold.Goldscore.Hbonds>
donor molecule, donor type, donor heavy atom, donor atom, acceptor molecule, acceptor atom, score
      P1  H  1967  1976       L1     9  0.62
      P1  H  2024  2029       L1     9  0.44
      P1  H  5174  5182       L1    17  0.14
      L1  H    10    23       P1  5143  0.80

> <Gold.Goldscore.Internal.Vdw.Weighted>
-2.5902

> <Gold.Goldscore.Internal.Torsion.Weighted>
-0.3701

> <Gold.Goldscore.External.Vdw.Weighted>
31.6206

> <Gold.Goldscore.Internal.HBond.Weighted>
0.0000

> <Gold.Goldscore.External.HBond.Weighted>
3.9983

> <Gold.Goldscore.Internal.Correction.Weighted>
-0.7585

> <Gold.Rescore>
     Score     S(PLP)   S(hbond)     S(cho)   S(metal)  DE(clash)   DE(tors)     intcor
     25.08     -19.81       2.24       0.00       0.00       1.33       0.06       ----

> <Gold.PLP.Fitness>
25.0846

> <Gold.PLP.PLP>
-19.8077

> <Gold.PLP.part.hbond>
-2.4775

> <Gold.PLP.part.metal>
0.0000

> <Gold.PLP.part.buried>
1.6929

> <Gold.PLP.part.nonpolar>
-30.6387

> <Gold.PLP.part.repulsive>
11.8928

> <Gold.PLP.ligand.clash>
1.3260

> <Gold.PLP.ligand.torsion>
0.0638

> <Gold.PLP.Chemscore.Hbond>
2.2435

> <Gold.PLP.Chemscore.CHOScore>
0.0000

> <Gold.PLP.Chemscore.Metal>
0.0000

> <Gold.Chemscore.Hbonds>
donor molecule, donor type, donor heavy atom, donor atom, acceptor molecule, acceptor atom, score
      L1  H    10    23       P1  5143  1.00
      P1  H  2024  2029       L1     9  0.71
      P1  H  5174  5182       L1    17  0.66

> <Gold.PLP.Chemscore.Internal.Correction>
   9.000000E+99

