#       Name:                CT1002167954
#       Creating user name   hitesit
#       Creation time:       Sun Apr 16 02:21:22 2023


#       File generated by GOLD software.
#

@<TRIPOS>MOLECULE
CT1002167954|ligand_prepared|mol2|1|dock4
    29    30     1
SMALL
NO_CHARGES


@<TRIPOS>ATOM
      1 C1         -29.1968   8.9590  11.6552 C.3            1 RES1               0.0000
      2 C2         -30.1536   9.3535  10.5117 C.ar           1 RES1               0.0000
      3 C3         -29.9418   9.2460  12.9555 C.2            1 RES1               0.0000
      4 C4         -28.8614   7.4870  11.4422 C.2            1 RES1               0.0000
      5 C5         -27.8708   9.7548  11.6630 C.3            1 RES1               0.0000
      6 C6         -29.6549   9.7224   9.2659 C.ar           1 RES1               0.0000
      7 C7         -31.5349   9.3508  10.6863 C.ar           1 RES1               0.0000
      8 N8         -30.4159   8.1793  13.6608 N.am           1 RES1               0.0000
      9 O9         -30.1448  10.3924  13.3360 O.2            1 RES1               0.0000
     10 N10        -29.2939   6.5875  12.3812 N.am           1 RES1               0.0000
     11 O11        -28.2410   7.0959  10.4612 O.2            1 RES1               0.0000
     12 C12        -27.0585   9.5804  12.9366 C.3            1 RES1               0.0000
     13 C13        -30.5062  10.0730   8.2313 C.ar           1 RES1               0.0000
     14 C14        -32.3845   9.7020   9.6503 C.ar           1 RES1               0.0000
     15 C15        -30.0823   6.8632  13.4650 C.2            1 RES1               0.0000
     16 C16        -31.8715  10.0626   8.4225 C.ar           1 RES1               0.0000
     17 O17        -30.4761   5.9916  14.2347 O.2            1 RES1               0.0000
     18 H18        -27.2615   9.4341  10.8090 H              1 RES1               0.0000
     19 H19        -28.0975  10.8201  11.5319 H              1 RES1               0.0000
     20 H20        -28.5832   9.7388   9.0974 H              1 RES1               0.0000
     21 H21        -31.9609   9.0715  11.6440 H              1 RES1               0.0000
     22 H22        -31.0798   8.3786  14.4023 H              1 RES1               0.0000
     23 H23        -29.0008   5.6231  12.2612 H              1 RES1               0.0000
     24 H24        -26.1387  10.1597  12.8898 H              1 RES1               0.0000
     25 H25        -27.6249   9.9133  13.8039 H              1 RES1               0.0000
     26 H26        -26.7938   8.5356  13.0852 H              1 RES1               0.0000
     27 H27        -30.0974  10.3574   7.2673 H              1 RES1               0.0000
     28 H28        -33.4583   9.6930   9.8055 H              1 RES1               0.0000
     29 H29        -32.5382  10.3369   7.6117 H              1 RES1               0.0000
@<TRIPOS>BOND
    1    1    2 1     
    2    1    3 1     
    3    1    4 1     
    4    1    5 1     
    5    2    6 ar    
    6    2    7 ar    
    7    3    8 1     
    8    3    9 2     
    9    4   10 1     
   10    4   11 2     
   11    5   12 1     
   12    5   18 1     
   13    5   19 1     
   14    6   13 ar    
   15    6   20 1     
   16    7   14 ar    
   17    7   21 1     
   18    8   15 1     
   19    8   22 1     
   20   10   15 1     
   21   10   23 1     
   22   12   24 1     
   23   12   25 1     
   24   12   26 1     
   25   13   16 ar    
   26   13   27 1     
   27   14   16 ar    
   28   14   28 1     
   29   15   17 2     
   30   16   29 1     
@<TRIPOS>SUBSTRUCTURE
      1 RES1           1
@<TRIPOS>SET
DONOR_HYDROGENS      STATIC     ATOMS    <user>   **** ""
2 22 23
ATOM$RED        STATIC     ATOMS    COLORGROUP SYSTEM
2 22 23
@<TRIPOS>COMMENT
> <Gold.Version>
2022.3.0

> <Gold.Id.Protein>
unknown|5n23_clean|pdb

> <Gold.Protein.RotatedTorsions>
[  719  714  712  709 ] final  -49.24 input   60.03 | X-H torsion
[ 5218 5209 5208 5206 ] final  -49.87 input   59.98 | X-H torsion
[ 1928 1919 1918 1916 ] final  144.73 input   60.02 | X-H torsion
[ 2029 2024 2023 2020 ] final  156.22 input   60.01 | X-H torsion
[ 2612 2610 2609 2607 ] final   95.51 input   60.02 | X-H torsion
[ 2694 2683 2682 2681 ] final  -46.01 input   59.97 | X-H torsion

> <Gold.Protein.ActiveResidues>
 ARG47   THR48   LEU49   GLY50   THR51   GLY52   SER53   PHE54   GLY55   ARG56  
 VAL57   MET58   LEU59   HIS68   TYR69   ALA70   MET71   LYS72   ILE73   GLU91  
 GLN95   VAL104  LYS105  MET118  VAL119  LEU120  GLU121  TYR122  ALA123  PRO124 
 GLY125  GLY126  GLU127  MET128  PHE129  SER130  HIS131  ARG134  TYR164  ASP166 
 LYS168  GLU170  ASN171  LEU172  LEU173  ILE174  ASP175  LYS181  VAL182  ALA183 
 ASP184  PHE185  GLY186  PRO316  ASN326  PHE327  ASP328  ASP329  TYR330 

> <Gold.Protein.RotatedAtoms>
  -20.6316   13.1435    7.0495 H   0  0  0  0  0  0  0  0  0  0  0  0  # atno 719  bound_to 714 
  -35.8307   12.2910   10.8782 H   0  0  0  0  0  0  0  0  0  0  0  0  # atno 1928 bound_to 1919
  -26.2729    5.6266   11.6017 H   0  0  0  0  0  0  0  0  0  0  0  0  # atno 2029 bound_to 2024
  -26.8317    2.3872   -2.5320 H   0  0  0  0  0  0  0  0  0  0  0  0  # atno 2612 bound_to 2610
  -18.5933    3.7020    1.6762 H   0  0  0  0  0  0  0  0  0  0  0  0  # atno 2694 bound_to 2683
  -18.5742    3.5448    0.0262 H   0  0  0  0  0  0  0  0  0  0  0  0  # atno 2695 bound_to 2683
  -19.2768    4.8737    0.7238 H   0  0  0  0  0  0  0  0  0  0  0  0  # atno 2696 bound_to 2683
  -22.6929   12.5837   11.1304 H   0  0  0  0  0  0  0  0  0  0  0  0  # atno 5218 bound_to 5209
  -19.1866   13.8922    7.0351 LP  0  0  0  0  0  0  0  0  0  0  0  0  # atno 5588 bound_to 714 
  -19.5799   12.8477    5.8432 LP  0  0  0  0  0  0  0  0  0  0  0  0  # atno 5589 bound_to 714 
  -21.6643   13.1327    9.9954 LP  0  0  0  0  0  0  0  0  0  0  0  0  # atno 5592 bound_to 5209
  -23.2713   13.1162    9.7058 LP  0  0  0  0  0  0  0  0  0  0  0  0  # atno 5593 bound_to 5209
  -34.2767   12.3980   10.4070 LP  0  0  0  0  0  0  0  0  0  0  0  0  # atno 5612 bound_to 1919
  -34.9896   10.9362   10.5533 LP  0  0  0  0  0  0  0  0  0  0  0  0  # atno 5613 bound_to 1919
  -25.1903    4.5822   10.9822 LP  0  0  0  0  0  0  0  0  0  0  0  0  # atno 5627 bound_to 2024
  -24.8810    5.3419   12.3943 LP  0  0  0  0  0  0  0  0  0  0  0  0  # atno 5628 bound_to 2024
  -26.1224    3.6045   -3.3470 LP  0  0  0  0  0  0  0  0  0  0  0  0  # atno 5649 bound_to 2610
  -25.2080    2.4703   -2.6094 LP  0  0  0  0  0  0  0  0  0  0  0  0  # atno 5650 bound_to 2610

> <Gold.Score>
     Fitness  S(hb_ext) S(vdw_ext)  S(hb_int)    S(int)      intcor
     37.63       2.68      26.05       0.00      -0.87      -0.76

> <Gold.Goldscore.Fitness>
37.6301

> <Gold.Goldscore.Internal.Vdw>
-1.0316

> <Gold.Goldscore.Internal.Torsion>
-0.5984

> <Gold.Goldscore.External.Vdw>
26.0508

> <Gold.Goldscore.Internal.HBond>
0.0000

> <Gold.Goldscore.External.HBond>
2.6753

> <Gold.Goldscore.Internal.Correction>
-0.7650

> <Gold.Goldscore.Hbonds>
donor molecule, donor type, donor heavy atom, donor atom, acceptor molecule, acceptor atom, score
      P1  H  1967  1976       L1    11  0.29
      P1  H  2024  2029       L1    11  0.25
      L1  H     8    22       P1  5147  0.79

> <Gold.Goldscore.Internal.Vdw.Weighted>
-1.0316

> <Gold.Goldscore.Internal.Torsion.Weighted>
-0.5984

> <Gold.Goldscore.External.Vdw.Weighted>
35.8198

> <Gold.Goldscore.Internal.HBond.Weighted>
0.0000

> <Gold.Goldscore.External.HBond.Weighted>
2.6753

> <Gold.Goldscore.Internal.Correction.Weighted>
-0.7650

> <Gold.Rescore>
     Score     S(PLP)   S(hbond)     S(cho)   S(metal)  DE(clash)   DE(tors)     intcor
     39.86     -35.76       2.00       0.00       0.00       0.19       0.86       ----

> <Gold.PLP.Fitness>
39.8552

> <Gold.PLP.PLP>
-35.7640

> <Gold.PLP.part.hbond>
-1.9725

> <Gold.PLP.part.metal>
0.0000

> <Gold.PLP.part.buried>
-3.0364

> <Gold.PLP.part.nonpolar>
-31.5606

> <Gold.PLP.part.repulsive>
0.7617

> <Gold.PLP.ligand.clash>
0.1924

> <Gold.PLP.ligand.torsion>
0.8582

> <Gold.PLP.Chemscore.Hbond>
2.0000

> <Gold.PLP.Chemscore.CHOScore>
0.0000

> <Gold.PLP.Chemscore.Metal>
0.0000

> <Gold.Chemscore.Hbonds>
donor molecule, donor type, donor heavy atom, donor atom, acceptor molecule, acceptor atom, score
      L1  H     8    22       P1  5147  1.00
      P1  H  1967  1976       L1    11  1.00

> <Gold.PLP.Chemscore.Internal.Correction>
   9.000000E+99

