#       Name:                CT1002167954
#       Creating user name   hitesit
#       Creation time:       Sun Apr 16 02:22:20 2023


#       File generated by GOLD software.
#

@<TRIPOS>MOLECULE
CT1002167954|ligand_prepared|mol2|1|dock4
    29    30     1
SMALL
NO_CHARGES


@<TRIPOS>ATOM
      1 C1          40.9641  18.4276  19.6160 C.3            1 RES1               0.0000
      2 C2          39.6696  19.2646  19.6666 C.ar           1 RES1               0.0000
      3 C3          41.7038  18.8583  18.3528 C.2            1 RES1               0.0000
      4 C4          41.7154  18.7253  20.9089 C.2            1 RES1               0.0000
      5 C5          40.7195  16.9022  19.5460 C.3            1 RES1               0.0000
      6 C6          38.4440  18.6948  19.3351 C.ar           1 RES1               0.0000
      7 C7          39.6849  20.6045  20.0446 C.ar           1 RES1               0.0000
      8 N8          42.8119  19.6386  18.5046 N.am           1 RES1               0.0000
      9 O9          41.2982  18.5510  17.2387 O.2            1 RES1               0.0000
     10 N10         42.9172  19.3771  20.8177 N.am           1 RES1               0.0000
     11 O11         41.2695  18.4160  22.0070 O.2            1 RES1               0.0000
     12 C12         41.9872  16.0717  19.6690 C.3            1 RES1               0.0000
     13 C13         37.2754  19.4368  19.3827 C.ar           1 RES1               0.0000
     14 C14         38.5151  21.3448  20.0913 C.ar           1 RES1               0.0000
     15 C15         43.4849  19.8745  19.6764 C.2            1 RES1               0.0000
     16 C16         37.3101  20.7620  19.7612 C.ar           1 RES1               0.0000
     17 O17         44.5426  20.4978  19.6817 O.2            1 RES1               0.0000
     18 H18         40.0313  16.6176  20.3514 H              1 RES1               0.0000
     19 H19         40.2340  16.6659  18.5910 H              1 RES1               0.0000
     20 H20         38.3974  17.6540  19.0326 H              1 RES1               0.0000
     21 H21         40.6215  21.0842  20.3075 H              1 RES1               0.0000
     22 H22         43.1737  20.0883  17.6696 H              1 RES1               0.0000
     23 H23         43.4369  19.5031  21.6804 H              1 RES1               0.0000
     24 H24         41.7593  15.0093  19.6136 H              1 RES1               0.0000
     25 H25         42.6843  16.3109  18.8686 H              1 RES1               0.0000
     26 H26         42.4829  16.2628  20.6186 H              1 RES1               0.0000
     27 H27         36.3298  18.9738  19.1207 H              1 RES1               0.0000
     28 H28         38.5472  22.3876  20.3891 H              1 RES1               0.0000
     29 H29         36.3945  21.3429  19.7988 H              1 RES1               0.0000
@<TRIPOS>BOND
    1    1    2 1     
    2    1    3 1     
    3    1    4 1     
    4    1    5 1     
    5    2    6 ar    
    6    2    7 ar    
    7    3    8 1     
    8    3    9 2     
    9    4   10 1     
   10    4   11 2     
   11    5   12 1     
   12    5   18 1     
   13    5   19 1     
   14    6   13 ar    
   15    6   20 1     
   16    7   14 ar    
   17    7   21 1     
   18    8   15 1     
   19    8   22 1     
   20   10   15 1     
   21   10   23 1     
   22   12   24 1     
   23   12   25 1     
   24   12   26 1     
   25   13   16 ar    
   26   13   27 1     
   27   14   16 ar    
   28   14   28 1     
   29   15   17 2     
   30   16   29 1     
@<TRIPOS>SUBSTRUCTURE
      1 RES1           1
@<TRIPOS>SET
DONOR_HYDROGENS      STATIC     ATOMS    <user>   **** ""
2 22 23
ATOM$RED        STATIC     ATOMS    COLORGROUP SYSTEM
2 22 23
@<TRIPOS>COMMENT
> <Gold.Version>
2022.3.0

> <Gold.Id.Protein>
unknown|7chy_cavity_clean|pdb

> <Gold.Protein.RotatedTorsions>
[ 6606 6597 6596 6594 ] final  155.92 input   60.03 | X-H torsion
[ 6631 6624 6622 6619 ] final  175.04 input   60.01 | X-H torsion
[ 5778 5771 5769 5766 ] final  169.20 input   60.02 | X-H torsion
[ 5700 5689 5688 5687 ] final -161.61 input   59.97 | X-H torsion
[ 5253 5242 5241 5240 ] final -123.89 input   60.02 | X-H torsion

> <Gold.Protein.ActiveResidues>
 GLU141  LEU142  LYS225  GLN242  LYS254  GLY256  GLN257  ASP258  ILE259  THR260 
 ASP261  TYR49   THR51   ALA52  

> <Gold.Protein.RotatedAtoms>
   47.6642   13.8401   29.5695 H   0  0  0  0  0  0  0  0  0  0  0  0  # atno 5253 bound_to 5242
   47.7662   14.4344   28.0254 H   0  0  0  0  0  0  0  0  0  0  0  0  # atno 5254 bound_to 5242
   48.8304   14.9543   29.1852 H   0  0  0  0  0  0  0  0  0  0  0  0  # atno 5255 bound_to 5242
   37.3027   22.3368   22.4874 H   0  0  0  0  0  0  0  0  0  0  0  0  # atno 5700 bound_to 5689
   38.9460   22.1376   22.3929 H   0  0  0  0  0  0  0  0  0  0  0  0  # atno 5701 bound_to 5689
   38.2301   22.4458   23.8557 H   0  0  0  0  0  0  0  0  0  0  0  0  # atno 5702 bound_to 5689
   43.6761   22.6347   21.3891 H   0  0  0  0  0  0  0  0  0  0  0  0  # atno 5778 bound_to 5771
   49.3407   16.9489    2.2380 H   0  0  0  0  0  0  0  0  0  0  0  0  # atno 6606 bound_to 6597
   43.8558   11.3733   11.2956 H   0  0  0  0  0  0  0  0  0  0  0  0  # atno 6631 bound_to 6624
   49.1922   16.0213    0.9093 LP  0  0  0  0  0  0  0  0  0  0  0  0  # atno 8772 bound_to 6597
   50.6606   16.5726    1.3636 LP  0  0  0  0  0  0  0  0  0  0  0  0  # atno 8773 bound_to 6597
   45.2729   11.2216   10.5095 LP  0  0  0  0  0  0  0  0  0  0  0  0  # atno 8778 bound_to 6624
   44.2840    9.9322   10.6719 LP  0  0  0  0  0  0  0  0  0  0  0  0  # atno 8779 bound_to 6624
   44.7540   21.8618   22.3323 LP  0  0  0  0  0  0  0  0  0  0  0  0  # atno 8782 bound_to 5771
   44.5465   21.4022   20.7791 LP  0  0  0  0  0  0  0  0  0  0  0  0  # atno 8783 bound_to 5771

> <Gold.Score>
     Fitness  S(hb_ext) S(vdw_ext)  S(hb_int)    S(int)      intcor
     25.62       3.65      16.46       0.00      -0.65      -0.78

> <Gold.Goldscore.Fitness>
25.6176

> <Gold.Goldscore.Internal.Vdw>
-0.9935

> <Gold.Goldscore.Internal.Torsion>
-0.4446

> <Gold.Goldscore.External.Vdw>
16.4554

> <Gold.Goldscore.Internal.HBond>
0.0000

> <Gold.Goldscore.External.HBond>
3.6456

> <Gold.Goldscore.Internal.Correction>
-0.7838

> <Gold.Goldscore.Hbonds>
donor molecule, donor type, donor heavy atom, donor atom, acceptor molecule, acceptor atom, score
      P1  H  5765  5772       L1    17  0.14
      L1  H    10    23       P1  5786  0.56

> <Gold.Goldscore.Internal.Vdw.Weighted>
-0.9935

> <Gold.Goldscore.Internal.Torsion.Weighted>
-0.4446

> <Gold.Goldscore.External.Vdw.Weighted>
22.6262

> <Gold.Goldscore.Internal.HBond.Weighted>
0.0000

> <Gold.Goldscore.External.HBond.Weighted>
3.6456

> <Gold.Goldscore.Internal.Correction.Weighted>
-0.7838

> <Gold.Rescore>
     Score     S(PLP)   S(hbond)     S(cho)   S(metal)  DE(clash)   DE(tors)     intcor
     22.72     -18.27       2.21       0.00       0.00       0.00       1.09       ----

> <Gold.PLP.Fitness>
22.7199

> <Gold.PLP.PLP>
-18.2660

> <Gold.PLP.part.hbond>
-4.5170

> <Gold.PLP.part.metal>
0.0000

> <Gold.PLP.part.buried>
-5.5296

> <Gold.PLP.part.nonpolar>
-14.5539

> <Gold.PLP.part.repulsive>
6.9766

> <Gold.PLP.ligand.clash>
0.0000

> <Gold.PLP.ligand.torsion>
1.0903

> <Gold.PLP.Chemscore.Hbond>
2.2115

> <Gold.PLP.Chemscore.CHOScore>
0.0000

> <Gold.PLP.Chemscore.Metal>
0.0000

> <Gold.Chemscore.Hbonds>
donor molecule, donor type, donor heavy atom, donor atom, acceptor molecule, acceptor atom, score
      L1  H    10    23       P1  5786  1.00
      P1  H  5765  5772       L1    17  0.72

> <Gold.PLP.Chemscore.Internal.Correction>
   9.000000E+99

