#       Name:                CT1002167954
#       Creating user name   hitesit
#       Creation time:       Sun Apr 16 02:22:22 2023


#       File generated by GOLD software.
#

@<TRIPOS>MOLECULE
CT1002167954|ligand_prepared|mol2|1|dock7
    29    30     1
SMALL
NO_CHARGES


@<TRIPOS>ATOM
      1 C1          43.4171  17.8935  19.5479 C.3            1 RES1               0.0000
      2 C2          43.9718  16.6983  20.3495 C.ar           1 RES1               0.0000
      3 C3          41.8969  17.8066  19.6460 C.2            1 RES1               0.0000
      4 C4          44.0110  19.1458  20.1833 C.2            1 RES1               0.0000
      5 C5          43.8143  17.8818  18.0534 C.3            1 RES1               0.0000
      6 C6          45.2600  16.2259  20.1171 C.ar           1 RES1               0.0000
      7 C7          43.2096  16.0608  21.3248 C.ar           1 RES1               0.0000
      8 N8          41.2637  18.7031  20.4555 N.am           1 RES1               0.0000
      9 O9          41.2668  16.9396  19.0530 O.2            1 RES1               0.0000
     10 N10         43.1561  20.0165  20.8070 N.am           1 RES1               0.0000
     11 O11         45.2134  19.3781  20.1639 O.2            1 RES1               0.0000
     12 C12         43.1379  18.9669  17.2306 C.3            1 RES1               0.0000
     13 C13         45.7690  15.1567  20.8355 C.ar           1 RES1               0.0000
     14 C14         43.7204  14.9916  22.0420 C.ar           1 RES1               0.0000
     15 C15         41.8133  19.8365  20.9986 C.2            1 RES1               0.0000
     16 C16         44.9998  14.5392  21.7987 C.ar           1 RES1               0.0000
     17 O17         41.1206  20.6390  21.6176 O.2            1 RES1               0.0000
     18 H18         44.9015  18.0060  17.9760 H              1 RES1               0.0000
     19 H19         43.5575  16.9040  17.6274 H              1 RES1               0.0000
     20 H20         45.8792  16.6976  19.3614 H              1 RES1               0.0000
     21 H21         42.2000  16.3989  21.5324 H              1 RES1               0.0000
     22 H22         40.2917  18.5131  20.6777 H              1 RES1               0.0000
     23 H23         43.5580  20.8787  21.1611 H              1 RES1               0.0000
     24 H24         43.4512  18.9138  16.1901 H              1 RES1               0.0000
     25 H25         42.0558  18.8586  17.2645 H              1 RES1               0.0000
     26 H26         43.3918  19.9541  17.6111 H              1 RES1               0.0000
     27 H27         46.7760  14.8036  20.6393 H              1 RES1               0.0000
     28 H28         43.1112  14.5082  22.7986 H              1 RES1               0.0000
     29 H29         45.3988  13.7019  22.3617 H              1 RES1               0.0000
@<TRIPOS>BOND
    1    1    2 1     
    2    1    3 1     
    3    1    4 1     
    4    1    5 1     
    5    2    6 ar    
    6    2    7 ar    
    7    3    8 1     
    8    3    9 2     
    9    4   10 1     
   10    4   11 2     
   11    5   12 1     
   12    5   18 1     
   13    5   19 1     
   14    6   13 ar    
   15    6   20 1     
   16    7   14 ar    
   17    7   21 1     
   18    8   15 1     
   19    8   22 1     
   20   10   15 1     
   21   10   23 1     
   22   12   24 1     
   23   12   25 1     
   24   12   26 1     
   25   13   16 ar    
   26   13   27 1     
   27   14   16 ar    
   28   14   28 1     
   29   15   17 2     
   30   16   29 1     
@<TRIPOS>SUBSTRUCTURE
      1 RES1           1
@<TRIPOS>SET
DONOR_HYDROGENS      STATIC     ATOMS    <user>   **** ""
2 22 23
ATOM$RED        STATIC     ATOMS    COLORGROUP SYSTEM
2 22 23
@<TRIPOS>COMMENT
> <Gold.Version>
2022.3.0

> <Gold.Id.Protein>
unknown|7chy_cavity_clean|pdb

> <Gold.Protein.RotatedTorsions>
[ 6606 6597 6596 6594 ] final  -70.82 input   60.03 | X-H torsion
[ 6631 6624 6622 6619 ] final  127.64 input   60.01 | X-H torsion
[ 5778 5771 5769 5766 ] final  117.37 input   60.02 | X-H torsion
[ 5700 5689 5688 5687 ] final -155.59 input   59.97 | X-H torsion
[ 5253 5242 5241 5240 ] final -176.14 input   60.02 | X-H torsion

> <Gold.Protein.ActiveResidues>
 GLU141  LEU142  LYS225  GLN242  LYS254  GLY256  GLN257  ASP258  ILE259  THR260 
 ASP261  TYR49   THR51   ALA52  

> <Gold.Protein.RotatedAtoms>
   48.3139   14.2979   29.8499 H   0  0  0  0  0  0  0  0  0  0  0  0  # atno 5253 bound_to 5242
   47.3583   13.9165   28.5502 H   0  0  0  0  0  0  0  0  0  0  0  0  # atno 5254 bound_to 5242
   48.5886   15.0144   28.3801 H   0  0  0  0  0  0  0  0  0  0  0  0  # atno 5255 bound_to 5242
   37.3506   22.3180   22.4011 H   0  0  0  0  0  0  0  0  0  0  0  0  # atno 5700 bound_to 5689
   38.9978   22.1451   22.4787 H   0  0  0  0  0  0  0  0  0  0  0  0  # atno 5701 bound_to 5689
   38.1303   22.4571   23.8561 H   0  0  0  0  0  0  0  0  0  0  0  0  # atno 5702 bound_to 5689
   44.0176   22.5876   22.1315 H   0  0  0  0  0  0  0  0  0  0  0  0  # atno 5778 bound_to 5771
   50.6106   16.4461    1.1944 H   0  0  0  0  0  0  0  0  0  0  0  0  # atno 6606 bound_to 6597
   44.4713   11.7465   11.0751 H   0  0  0  0  0  0  0  0  0  0  0  0  # atno 6631 bound_to 6624
   49.5427   17.0152    2.2824 LP  0  0  0  0  0  0  0  0  0  0  0  0  # atno 8772 bound_to 6597
   49.0312   16.0850    1.0415 LP  0  0  0  0  0  0  0  0  0  0  0  0  # atno 8773 bound_to 6597
   45.1967   10.4857   10.3450 LP  0  0  0  0  0  0  0  0  0  0  0  0  # atno 8778 bound_to 6624
   43.7406   10.2923   11.0584 LP  0  0  0  0  0  0  0  0  0  0  0  0  # atno 8779 bound_to 6624
   44.9874   21.3414   21.7376 LP  0  0  0  0  0  0  0  0  0  0  0  0  # atno 8782 bound_to 5771
   43.9693   21.9701   20.6265 LP  0  0  0  0  0  0  0  0  0  0  0  0  # atno 8783 bound_to 5771

> <Gold.Score>
     Fitness  S(hb_ext) S(vdw_ext)  S(hb_int)    S(int)      intcor
     30.73       3.74      20.48       0.00      -1.17      -0.76

> <Gold.Goldscore.Fitness>
30.7310

> <Gold.Goldscore.Internal.Vdw>
-1.4823

> <Gold.Goldscore.Internal.Torsion>
-0.4432

> <Gold.Goldscore.External.Vdw>
20.4808

> <Gold.Goldscore.Internal.HBond>
0.0000

> <Gold.Goldscore.External.HBond>
3.7368

> <Gold.Goldscore.Internal.Correction>
-0.7585

> <Gold.Goldscore.Hbonds>
donor molecule, donor type, donor heavy atom, donor atom, acceptor molecule, acceptor atom, score
      P1  H  5765  5772       L1    11  0.96
      L1  H    10    23       P1  5771  0.91

> <Gold.Goldscore.Internal.Vdw.Weighted>
-1.4823

> <Gold.Goldscore.Internal.Torsion.Weighted>
-0.4432

> <Gold.Goldscore.External.Vdw.Weighted>
28.1611

> <Gold.Goldscore.Internal.HBond.Weighted>
0.0000

> <Gold.Goldscore.External.HBond.Weighted>
3.7368

> <Gold.Goldscore.Internal.Correction.Weighted>
-0.7585

> <Gold.Rescore>
     Score     S(PLP)   S(hbond)     S(cho)   S(metal)  DE(clash)   DE(tors)     intcor
     24.35     -23.07       1.00       0.00       0.00       1.32       0.20       ----

> <Gold.PLP.Fitness>
24.3541

> <Gold.PLP.PLP>
-23.0717

> <Gold.PLP.part.hbond>
-4.1246

> <Gold.PLP.part.metal>
0.0000

> <Gold.PLP.part.buried>
-5.0361

> <Gold.PLP.part.nonpolar>
-16.0461

> <Gold.PLP.part.repulsive>
2.1932

> <Gold.PLP.ligand.clash>
1.3159

> <Gold.PLP.ligand.torsion>
0.2009

> <Gold.PLP.Chemscore.Hbond>
1.0000

> <Gold.PLP.Chemscore.CHOScore>
0.0000

> <Gold.PLP.Chemscore.Metal>
0.0000

> <Gold.Chemscore.Hbonds>
donor molecule, donor type, donor heavy atom, donor atom, acceptor molecule, acceptor atom, score
      L1  H    10    23       P1  5771  0.80
      P1  H  5765  5772       L1    11  1.00

> <Gold.PLP.Chemscore.Internal.Correction>
   9.000000E+99

