#       Name:                CT1002167954
#       Creating user name   hitesit
#       Creation time:       Sun Apr 16 02:22:19 2023


#       File generated by GOLD software.
#

@<TRIPOS>MOLECULE
CT1002167954|ligand_prepared|mol2|1|dock3
    29    30     1
SMALL
NO_CHARGES


@<TRIPOS>ATOM
      1 C1          40.4264  18.8229  21.3528 C.3            1 RES1               0.0000
      2 C2          39.9864  19.2522  22.7673 C.ar           1 RES1               0.0000
      3 C3          40.8261  20.1014  20.6220 C.2            1 RES1               0.0000
      4 C4          41.5695  17.8323  21.5438 C.2            1 RES1               0.0000
      5 C5          39.3152  18.1192  20.5394 C.3            1 RES1               0.0000
      6 C6          40.9132  19.3394  23.8018 C.ar           1 RES1               0.0000
      7 C7          38.6601  19.5660  23.0519 C.ar           1 RES1               0.0000
      8 N8          42.1564  20.3247  20.4210 N.am           1 RES1               0.0000
      9 O9          39.9891  20.9203  20.2626 O.2            1 RES1               0.0000
     10 N10         42.8150  18.1963  21.1034 N.am           1 RES1               0.0000
     11 O11         41.4063  16.7465  22.0868 O.2            1 RES1               0.0000
     12 C12         39.8284  17.3741  19.3172 C.3            1 RES1               0.0000
     13 C13         40.5287  19.7292  25.0740 C.ar           1 RES1               0.0000
     14 C14         38.2776  19.9554  24.3250 C.ar           1 RES1               0.0000
     15 C15         43.1664  19.4100  20.5784 C.2            1 RES1               0.0000
     16 C16         39.2109  20.0378  25.3363 C.ar           1 RES1               0.0000
     17 O17         44.3193  19.6818  20.2557 O.2            1 RES1               0.0000
     18 H18         38.7951  17.4085  21.1935 H              1 RES1               0.0000
     19 H19         38.5858  18.8711  20.2140 H              1 RES1               0.0000
     20 H20         41.9543  19.0981  23.6148 H              1 RES1               0.0000
     21 H21         37.9085  19.5072  22.2720 H              1 RES1               0.0000
     22 H22         42.4250  21.2582  20.1266 H              1 RES1               0.0000
     23 H23         43.5481  17.4977  21.1732 H              1 RES1               0.0000
     24 H24         39.0085  16.8989  18.7828 H              1 RES1               0.0000
     25 H25         40.3296  18.0552  18.6325 H              1 RES1               0.0000
     26 H26         40.5377  16.6013  19.6063 H              1 RES1               0.0000
     27 H27         41.2668  19.7912  25.8668 H              1 RES1               0.0000
     28 H28         37.2393  20.1968  24.5271 H              1 RES1               0.0000
     29 H29         38.9100  20.3435  26.3330 H              1 RES1               0.0000
@<TRIPOS>BOND
    1    1    2 1     
    2    1    3 1     
    3    1    4 1     
    4    1    5 1     
    5    2    6 ar    
    6    2    7 ar    
    7    3    8 1     
    8    3    9 2     
    9    4   10 1     
   10    4   11 2     
   11    5   12 1     
   12    5   18 1     
   13    5   19 1     
   14    6   13 ar    
   15    6   20 1     
   16    7   14 ar    
   17    7   21 1     
   18    8   15 1     
   19    8   22 1     
   20   10   15 1     
   21   10   23 1     
   22   12   24 1     
   23   12   25 1     
   24   12   26 1     
   25   13   16 ar    
   26   13   27 1     
   27   14   16 ar    
   28   14   28 1     
   29   15   17 2     
   30   16   29 1     
@<TRIPOS>SUBSTRUCTURE
      1 RES1           1
@<TRIPOS>SET
DONOR_HYDROGENS      STATIC     ATOMS    <user>   **** ""
2 22 23
ATOM$RED        STATIC     ATOMS    COLORGROUP SYSTEM
2 22 23
@<TRIPOS>COMMENT
> <Gold.Version>
2022.3.0

> <Gold.Id.Protein>
unknown|7chy_cavity_clean|pdb

> <Gold.Protein.RotatedTorsions>
[ 6606 6597 6596 6594 ] final  -72.16 input   60.03 | X-H torsion
[ 6631 6624 6622 6619 ] final   -9.02 input   60.01 | X-H torsion
[ 5778 5771 5769 5766 ] final   14.98 input   60.02 | X-H torsion
[ 5700 5689 5688 5687 ] final  133.17 input   59.97 | X-H torsion
[ 5253 5242 5241 5240 ] final  172.37 input   60.02 | X-H torsion

> <Gold.Protein.ActiveResidues>
 GLU141  LEU142  LYS225  GLN242  LYS254  GLY256  GLN257  ASP258  ILE259  THR260 
 ASP261  TYR49   THR51   ALA52  

> <Gold.Protein.RotatedAtoms>
   48.4510   14.4265   29.8119 H   0  0  0  0  0  0  0  0  0  0  0  0  # atno 5253 bound_to 5242
   47.3413   13.8440   28.7269 H   0  0  0  0  0  0  0  0  0  0  0  0  # atno 5254 bound_to 5242
   48.4685   14.9583   28.2415 H   0  0  0  0  0  0  0  0  0  0  0  0  # atno 5255 bound_to 5242
   37.4262   22.4809   23.5009 H   0  0  0  0  0  0  0  0  0  0  0  0  # atno 5700 bound_to 5689
   38.0030   22.1788   21.9761 H   0  0  0  0  0  0  0  0  0  0  0  0  # atno 5701 bound_to 5689
   39.0500   22.2603   23.2585 H   0  0  0  0  0  0  0  0  0  0  0  0  # atno 5702 bound_to 5689
   44.9617   21.4838   21.9862 H   0  0  0  0  0  0  0  0  0  0  0  0  # atno 5778 bound_to 5771
   50.6172   16.4586    1.2111 H   0  0  0  0  0  0  0  0  0  0  0  0  # atno 6606 bound_to 6597
   45.0401   10.2636   10.3629 H   0  0  0  0  0  0  0  0  0  0  0  0  # atno 6631 bound_to 6624
   49.5213   17.0102    2.2802 LP  0  0  0  0  0  0  0  0  0  0  0  0  # atno 8772 bound_to 6597
   49.0459   16.0774    1.0269 LP  0  0  0  0  0  0  0  0  0  0  0  0  # atno 8773 bound_to 6597
   43.6513   10.5251   11.1702 LP  0  0  0  0  0  0  0  0  0  0  0  0  # atno 8778 bound_to 6624
   44.7134   11.7459   10.9501 LP  0  0  0  0  0  0  0  0  0  0  0  0  # atno 8779 bound_to 6624
   44.1559   21.7518   20.5977 LP  0  0  0  0  0  0  0  0  0  0  0  0  # atno 8782 bound_to 5771
   43.8504   22.6707   21.9126 LP  0  0  0  0  0  0  0  0  0  0  0  0  # atno 8783 bound_to 5771

> <Gold.Score>
     Fitness  S(hb_ext) S(vdw_ext)  S(hb_int)    S(int)      intcor
     24.28       1.92      16.65       0.00      -0.53      -0.78

> <Gold.Goldscore.Fitness>
24.2798

> <Gold.Goldscore.Internal.Vdw>
-0.5871

> <Gold.Goldscore.Internal.Torsion>
-0.7268

> <Gold.Goldscore.External.Vdw>
16.6458

> <Gold.Goldscore.Internal.HBond>
0.0000

> <Gold.Goldscore.External.HBond>
1.9219

> <Gold.Goldscore.Internal.Correction>
-0.7838

> <Gold.Goldscore.Hbonds>
donor molecule, donor type, donor heavy atom, donor atom, acceptor molecule, acceptor atom, score
      P1  H  5765  5772       L1    17  0.95
      L1  H     8    22       P1  5684  0.01

> <Gold.Goldscore.Internal.Vdw.Weighted>
-0.5871

> <Gold.Goldscore.Internal.Torsion.Weighted>
-0.7268

> <Gold.Goldscore.External.Vdw.Weighted>
22.8879

> <Gold.Goldscore.Internal.HBond.Weighted>
0.0000

> <Gold.Goldscore.External.HBond.Weighted>
1.9219

> <Gold.Goldscore.Internal.Correction.Weighted>
-0.7838

> <Gold.Rescore>
     Score     S(PLP)   S(hbond)     S(cho)   S(metal)  DE(clash)   DE(tors)     intcor
     15.29     -17.89       0.00       0.00       0.00       0.00       1.30       ----

> <Gold.PLP.Fitness>
15.2873

> <Gold.PLP.PLP>
-17.8937

> <Gold.PLP.part.hbond>
-1.3319

> <Gold.PLP.part.metal>
0.0000

> <Gold.PLP.part.buried>
-5.2245

> <Gold.PLP.part.nonpolar>
-11.6040

> <Gold.PLP.part.repulsive>
0.3791

> <Gold.PLP.ligand.clash>
0.0000

> <Gold.PLP.ligand.torsion>
1.3032

> <Gold.PLP.Chemscore.Hbond>
0.0000

> <Gold.PLP.Chemscore.CHOScore>
0.0000

> <Gold.PLP.Chemscore.Metal>
0.0000

> <Gold.Chemscore.Hbonds>
donor molecule, donor type, donor heavy atom, donor atom, acceptor molecule, acceptor atom, score
      L1  H     8    22       P1  5684  0.51
      P1  H  5765  5772       L1    17  0.80

> <Gold.PLP.Chemscore.Internal.Correction>
   9.000000E+99

