#       Name:                CT1002167954
#       Creating user name   hitesit
#       Creation time:       Sun Apr 16 02:25:10 2023


#       File generated by GOLD software.
#

@<TRIPOS>MOLECULE
CT1002167954|ligand_prepared|mol2|1|dock3
    29    30     1
SMALL
NO_CHARGES


@<TRIPOS>ATOM
      1 C1         105.2368 229.0920 354.5323 C.3            1 RES1               0.0000
      2 C2         106.6362 229.6956 354.7693 C.ar           1 RES1               0.0000
      3 C3         105.3358 228.2714 353.2497 C.2            1 RES1               0.0000
      4 C4         104.9113 228.2690 355.7738 C.2            1 RES1               0.0000
      5 C5         104.1223 230.1492 354.3542 C.3            1 RES1               0.0000
      6 C6         106.7811 231.0386 355.1044 C.ar           1 RES1               0.0000
      7 C7         107.7891 228.9229 354.6593 C.ar           1 RES1               0.0000
      8 N8         105.3488 226.9129 353.3682 N.am           1 RES1               0.0000
      9 O9         105.4407 228.8086 352.1539 O.2            1 RES1               0.0000
     10 N10        104.7960 226.9110 355.6319 N.am           1 RES1               0.0000
     11 O11        104.7702 228.7825 356.8768 O.2            1 RES1               0.0000
     12 C12        102.7960 229.5695 353.8884 C.3            1 RES1               0.0000
     13 C13        108.0331 231.5884 355.3245 C.ar           1 RES1               0.0000
     14 C14        109.0403 229.4749 354.8796 C.ar           1 RES1               0.0000
     15 C15        105.0303 226.1924 354.4912 C.2            1 RES1               0.0000
     16 C16        109.1634 230.8070 355.2127 C.ar           1 RES1               0.0000
     17 O17        104.9593 224.9673 354.4555 O.2            1 RES1               0.0000
     18 H18        103.9666 230.6627 355.3110 H              1 RES1               0.0000
     19 H19        104.4572 230.8959 353.6236 H              1 RES1               0.0000
     20 H20        105.9033 231.6696 355.1945 H              1 RES1               0.0000
     21 H21        107.7164 227.8728 354.3972 H              1 RES1               0.0000
     22 H22        105.6206 226.3836 352.5458 H              1 RES1               0.0000
     23 H23        104.5087 226.3872 356.4525 H              1 RES1               0.0000
     24 H24        102.0494 230.3533 353.7795 H              1 RES1               0.0000
     25 H25        102.9085 229.0728 352.9269 H              1 RES1               0.0000
     26 H26        102.4208 228.8411 354.6043 H              1 RES1               0.0000
     27 H27        108.1247 232.6377 355.5850 H              1 RES1               0.0000
     28 H28        109.9271 228.8563 354.7899 H              1 RES1               0.0000
     29 H29        110.1440 231.2379 355.3855 H              1 RES1               0.0000
@<TRIPOS>BOND
    1    1    2 1     
    2    1    3 1     
    3    1    4 1     
    4    1    5 1     
    5    2    6 ar    
    6    2    7 ar    
    7    3    8 1     
    8    3    9 2     
    9    4   10 1     
   10    4   11 2     
   11    5   12 1     
   12    5   18 1     
   13    5   19 1     
   14    6   13 ar    
   15    6   20 1     
   16    7   14 ar    
   17    7   21 1     
   18    8   15 1     
   19    8   22 1     
   20   10   15 1     
   21   10   23 1     
   22   12   24 1     
   23   12   25 1     
   24   12   26 1     
   25   13   16 ar    
   26   13   27 1     
   27   14   16 ar    
   28   14   28 1     
   29   15   17 2     
   30   16   29 1     
@<TRIPOS>SUBSTRUCTURE
      1 RES1           1
@<TRIPOS>SET
DONOR_HYDROGENS      STATIC     ATOMS    <user>   **** ""
2 22 23
ATOM$RED        STATIC     ATOMS    COLORGROUP SYSTEM
2 22 23
@<TRIPOS>COMMENT
> <Gold.Version>
2022.3.0

> <Gold.Id.Protein>
unknown|5uo4_clean|pdb

> <Gold.Protein.RotatedTorsions>
[ 10186 10164 10165 10166 ] final -115.51 input   69.28 | X-H torsion
[ 10196 10172 10171 10170 ] final  -14.04 input   60.01 | X-H torsion
[ 10220 10206 10207 10208 ] final   83.06 input  114.40 | X-H torsion
[ 10226 10212 10210 10207 ] final -103.52 input   59.97 | X-H torsion
[ 10244 10233 10234 10235 ] final   91.00 input  114.32 | X-H torsion
[ 10248 10238 10237 10234 ] final    3.28 input   59.98 | X-H torsion
[ 10266 10255 10256 10257 ] final  -26.84 input  104.54 | X-H torsion
[ 11356 11334 11333 11330 ] final -120.50 input   60.02 | X-H torsion
[ 10270 10260 10259 10256 ] final  -30.21 input   59.98 | X-H torsion
[ 10298 10279 10280 10281 ] final  -26.56 input -125.27 | X-H torsion
[ 13520 10121 10120 10119 ] final  -28.34 input   -0.00 | X-H torsion
[ 13523 10167 10166 10165 ] final  -30.90 input   -0.00 | X-H torsion
[ 13526 10209 10208 10207 ] final   12.09 input    0.00 | X-H torsion
[ 13552 10236 10235 10234 ] final  -93.69 input    0.00 | X-H torsion

> <Gold.Protein.ActiveResidues>
 ARG624  LYS625  THR626  SER627  SER628  LEU629  TRP630  LEU643  TYR644  GLN647 
 ILE653  VAL654  ASP655  HIS657  SER658  ALA659  GLU661  SER662 

> <Gold.Protein.RotatedAtoms>
  107.1592  224.7854  350.9857 H   0  0  0  0  0  0  0  0  0  0  0  0  # atno 10186 bound_to 10164
  107.0963  226.3498  357.0938 H   0  0  0  0  0  0  0  0  0  0  0  0  # atno 10196 bound_to 10172
  106.0121  225.1047  356.9529 H   0  0  0  0  0  0  0  0  0  0  0  0  # atno 10197 bound_to 10172
  106.8847  225.2883  358.3496 H   0  0  0  0  0  0  0  0  0  0  0  0  # atno 10198 bound_to 10172
  108.5683  228.7362  352.0605 H   0  0  0  0  0  0  0  0  0  0  0  0  # atno 10220 bound_to 10206
  107.9419  231.1579  352.0273 H   0  0  0  0  0  0  0  0  0  0  0  0  # atno 10226 bound_to 10212
  110.6905  228.8636  352.6983 H   0  0  0  0  0  0  0  0  0  0  0  0  # atno 10244 bound_to 10233
  112.1717  227.6574  354.1431 H   0  0  0  0  0  0  0  0  0  0  0  0  # atno 10248 bound_to 10238
  113.4520  228.4899  351.6100 H   0  0  0  0  0  0  0  0  0  0  0  0  # atno 10266 bound_to 10255
  112.4516  226.4991  349.4263 H   0  0  0  0  0  0  0  0  0  0  0  0  # atno 10270 bound_to 10260
  113.7950  227.6624  349.2829 H   0  0  0  0  0  0  0  0  0  0  0  0  # atno 10298 bound_to 10279
  104.2132  239.0793  355.9969 H   0  0  0  0  0  0  0  0  0  0  0  0  # atno 11356 bound_to 11334
  105.1812  225.5357  350.3723 LP  0  0  0  0  0  0  0  0  0  0  0  0  # atno 13520 bound_to 10121
  105.9594  226.1056  351.8110 LP  0  0  0  0  0  0  0  0  0  0  0  0  # atno 13521 bound_to 10121
  108.8542  224.3599  350.9837 LP  0  0  0  0  0  0  0  0  0  0  0  0  # atno 13522 bound_to 10164
  110.7322  225.9100  350.7911 LP  0  0  0  0  0  0  0  0  0  0  0  0  # atno 13523 bound_to 10167
  110.5028  227.1687  349.6236 LP  0  0  0  0  0  0  0  0  0  0  0  0  # atno 13524 bound_to 10167
  108.8730  227.5270  350.8379 LP  0  0  0  0  0  0  0  0  0  0  0  0  # atno 13525 bound_to 10206
  111.9266  229.9858  349.1622 LP  0  0  0  0  0  0  0  0  0  0  0  0  # atno 13526 bound_to 10209
  113.0779  229.6193  350.4033 LP  0  0  0  0  0  0  0  0  0  0  0  0  # atno 13527 bound_to 10209
  109.1756  232.2115  351.9006 LP  0  0  0  0  0  0  0  0  0  0  0  0  # atno 13528 bound_to 10212
  109.4514  230.6841  352.4080 LP  0  0  0  0  0  0  0  0  0  0  0  0  # atno 13529 bound_to 10212
  111.2062  229.8379  351.3370 LP  0  0  0  0  0  0  0  0  0  0  0  0  # atno 13530 bound_to 10233
  111.3083  228.3649  355.3268 LP  0  0  0  0  0  0  0  0  0  0  0  0  # atno 13531 bound_to 10238
  112.8837  228.0067  355.5637 LP  0  0  0  0  0  0  0  0  0  0  0  0  # atno 13532 bound_to 10238
  112.4908  227.1517  352.1904 LP  0  0  0  0  0  0  0  0  0  0  0  0  # atno 13533 bound_to 10255
  105.5977  238.7030  355.2291 LP  0  0  0  0  0  0  0  0  0  0  0  0  # atno 13550 bound_to 11334
  104.1864  238.7289  354.4080 LP  0  0  0  0  0  0  0  0  0  0  0  0  # atno 13551 bound_to 11334
  115.5853  228.9934  352.2331 LP  0  0  0  0  0  0  0  0  0  0  0  0  # atno 13552 bound_to 10236
  115.1707  228.1838  353.7071 LP  0  0  0  0  0  0  0  0  0  0  0  0  # atno 13553 bound_to 10236
  111.9367  224.9552  349.4122 LP  0  0  0  0  0  0  0  0  0  0  0  0  # atno 13554 bound_to 10260
  113.3124  225.3671  348.6347 LP  0  0  0  0  0  0  0  0  0  0  0  0  # atno 13555 bound_to 10260
  114.7559  228.6042  350.4058 LP  0  0  0  0  0  0  0  0  0  0  0  0  # atno 13556 bound_to 10279

> <Gold.Score>
     Fitness  S(hb_ext) S(vdw_ext)  S(hb_int)    S(int)      intcor
     25.94       2.00      17.89       0.00      -0.67      -0.79

> <Gold.Goldscore.Fitness>
25.9382

> <Gold.Goldscore.Internal.Vdw>
-0.9323

> <Gold.Goldscore.Internal.Torsion>
-0.5253

> <Gold.Goldscore.External.Vdw>
17.8945

> <Gold.Goldscore.Internal.HBond>
0.0000

> <Gold.Goldscore.External.HBond>
2.0000

> <Gold.Goldscore.Internal.Correction>
-0.7909

> <Gold.Goldscore.Hbonds>
donor molecule, donor type, donor heavy atom, donor atom, acceptor molecule, acceptor atom, score
      L1  H     8    22       P1 10121  1.00

> <Gold.Goldscore.Internal.Vdw.Weighted>
-0.9323

> <Gold.Goldscore.Internal.Torsion.Weighted>
-0.5253

> <Gold.Goldscore.External.Vdw.Weighted>
24.6049

> <Gold.Goldscore.Internal.HBond.Weighted>
0.0000

> <Gold.Goldscore.External.HBond.Weighted>
2.0000

> <Gold.Goldscore.Internal.Correction.Weighted>
-0.7909

> <Gold.Rescore>
     Score     S(PLP)   S(hbond)     S(cho)   S(metal)  DE(clash)   DE(tors)     intcor
     25.87     -23.16       1.00       0.00       0.00       0.00       0.14       ----

> <Gold.PLP.Fitness>
25.8681

> <Gold.PLP.PLP>
-23.1571

> <Gold.PLP.part.hbond>
-1.0000

> <Gold.PLP.part.metal>
0.0000

> <Gold.PLP.part.buried>
-6.0687

> <Gold.PLP.part.nonpolar>
-17.2822

> <Gold.PLP.part.repulsive>
0.2722

> <Gold.PLP.ligand.clash>
0.0000

> <Gold.PLP.ligand.torsion>
0.1445

> <Gold.PLP.Chemscore.Hbond>
1.0000

> <Gold.PLP.Chemscore.CHOScore>
0.0000

> <Gold.PLP.Chemscore.Metal>
0.0000

> <Gold.Chemscore.Hbonds>
donor molecule, donor type, donor heavy atom, donor atom, acceptor molecule, acceptor atom, score
      L1  H     8    22       P1 10121  1.00

> <Gold.PLP.Chemscore.Internal.Correction>
   9.000000E+99

