#       Name:                CT1002167954
#       Creating user name   hitesit
#       Creation time:       Sun Apr 16 02:25:12 2023


#       File generated by GOLD software.
#

@<TRIPOS>MOLECULE
CT1002167954|ligand_prepared|mol2|1|dock7
    29    30     1
SMALL
NO_CHARGES


@<TRIPOS>ATOM
      1 C1         108.5279 232.3995 357.0803 C.3            1 RES1               0.0000
      2 C2         108.0784 231.4994 355.9114 C.ar           1 RES1               0.0000
      3 C3         108.3216 231.5837 358.3532 C.2            1 RES1               0.0000
      4 C4         109.9824 232.7635 356.8036 C.2            1 RES1               0.0000
      5 C5         107.7216 233.7134 357.2030 C.3            1 RES1               0.0000
      6 C6         107.2311 231.9917 354.9232 C.ar           1 RES1               0.0000
      7 C7         108.5039 230.1778 355.8065 C.ar           1 RES1               0.0000
      8 N8         109.4307 231.0863 358.9716 N.am           1 RES1               0.0000
      9 O9         107.2004 231.3470 358.7858 O.2            1 RES1               0.0000
     10 N10        110.9373 232.2933 357.6666 N.am           1 RES1               0.0000
     11 O11        110.3118 233.4394 355.8366 O.2            1 RES1               0.0000
     12 C12        108.0394 234.5130 358.4567 C.3            1 RES1               0.0000
     13 C13        106.8264 231.1927 353.8667 C.ar           1 RES1               0.0000
     14 C14        108.0977 229.3805 354.7492 C.ar           1 RES1               0.0000
     15 C15        110.7305 231.4457 358.7206 C.2            1 RES1               0.0000
     16 C16        107.2596 229.8869 353.7787 C.ar           1 RES1               0.0000
     17 O17        111.6477 231.0227 359.4184 O.2            1 RES1               0.0000
     18 H18        107.9275 234.3374 356.3246 H              1 RES1               0.0000
     19 H19        106.6513 233.4726 357.1997 H              1 RES1               0.0000
     20 H20        106.8779 233.0161 354.9769 H              1 RES1               0.0000
     21 H21        109.1626 229.7578 356.5590 H              1 RES1               0.0000
     22 H22        109.2797 230.3820 359.6867 H              1 RES1               0.0000
     23 H23        111.8906 232.6041 357.5087 H              1 RES1               0.0000
     24 H24        107.4467 235.4247 358.4934 H              1 RES1               0.0000
     25 H25        107.8224 233.9316 359.3504 H              1 RES1               0.0000
     26 H26        109.0910 234.7913 358.4805 H              1 RES1               0.0000
     27 H27        106.1656 231.5957 353.1062 H              1 RES1               0.0000
     28 H28        108.4407 228.3532 354.6844 H              1 RES1               0.0000
     29 H29        106.9427 229.2614 352.9508 H              1 RES1               0.0000
@<TRIPOS>BOND
    1    1    2 1     
    2    1    3 1     
    3    1    4 1     
    4    1    5 1     
    5    2    6 ar    
    6    2    7 ar    
    7    3    8 1     
    8    3    9 2     
    9    4   10 1     
   10    4   11 2     
   11    5   12 1     
   12    5   18 1     
   13    5   19 1     
   14    6   13 ar    
   15    6   20 1     
   16    7   14 ar    
   17    7   21 1     
   18    8   15 1     
   19    8   22 1     
   20   10   15 1     
   21   10   23 1     
   22   12   24 1     
   23   12   25 1     
   24   12   26 1     
   25   13   16 ar    
   26   13   27 1     
   27   14   16 ar    
   28   14   28 1     
   29   15   17 2     
   30   16   29 1     
@<TRIPOS>SUBSTRUCTURE
      1 RES1           1
@<TRIPOS>SET
DONOR_HYDROGENS      STATIC     ATOMS    <user>   **** ""
2 22 23
ATOM$RED        STATIC     ATOMS    COLORGROUP SYSTEM
2 22 23
@<TRIPOS>COMMENT
> <Gold.Version>
2022.3.0

> <Gold.Id.Protein>
unknown|5uo4_clean|pdb

> <Gold.Protein.RotatedTorsions>
[ 10186 10164 10165 10166 ] final  175.93 input   69.28 | X-H torsion
[ 10196 10172 10171 10170 ] final  -63.16 input   60.01 | X-H torsion
[ 10220 10206 10207 10208 ] final -147.08 input  114.40 | X-H torsion
[ 10226 10212 10210 10207 ] final   14.75 input   59.97 | X-H torsion
[ 10244 10233 10234 10235 ] final -177.81 input  114.32 | X-H torsion
[ 10248 10238 10237 10234 ] final  -90.37 input   59.98 | X-H torsion
[ 10266 10255 10256 10257 ] final   88.32 input  104.54 | X-H torsion
[ 11356 11334 11333 11330 ] final -176.92 input   60.02 | X-H torsion
[ 10270 10260 10259 10256 ] final   22.83 input   59.98 | X-H torsion
[ 10298 10279 10280 10281 ] final  139.43 input -125.27 | X-H torsion
[ 13520 10121 10120 10119 ] final  155.62 input   -0.00 | X-H torsion
[ 13523 10167 10166 10165 ] final   81.49 input   -0.00 | X-H torsion
[ 13526 10209 10208 10207 ] final  -80.96 input    0.00 | X-H torsion
[ 13552 10236 10235 10234 ] final -162.77 input    0.00 | X-H torsion

> <Gold.Protein.ActiveResidues>
 ARG624  LYS625  THR626  SER627  SER628  LEU629  TRP630  LEU643  TYR644  GLN647 
 ILE653  VAL654  ASP655  HIS657  SER658  ALA659  GLU661  SER662 

> <Gold.Protein.RotatedAtoms>
  107.6036  224.2486  351.6969 H   0  0  0  0  0  0  0  0  0  0  0  0  # atno 10186 bound_to 10164
  107.3284  226.1645  357.8318 H   0  0  0  0  0  0  0  0  0  0  0  0  # atno 10196 bound_to 10172
  106.3297  225.7324  356.5822 H   0  0  0  0  0  0  0  0  0  0  0  0  # atno 10197 bound_to 10172
  106.3349  224.8459  357.9823 H   0  0  0  0  0  0  0  0  0  0  0  0  # atno 10198 bound_to 10172
  108.2592  227.9234  350.7203 H   0  0  0  0  0  0  0  0  0  0  0  0  # atno 10220 bound_to 10206
  109.4257  230.6703  352.4061 H   0  0  0  0  0  0  0  0  0  0  0  0  # atno 10226 bound_to 10212
  110.6832  230.1057  352.4130 H   0  0  0  0  0  0  0  0  0  0  0  0  # atno 10244 bound_to 10233
  111.2175  228.2378  354.9280 H   0  0  0  0  0  0  0  0  0  0  0  0  # atno 10248 bound_to 10238
  112.3271  227.5454  351.3563 H   0  0  0  0  0  0  0  0  0  0  0  0  # atno 10266 bound_to 10255
  113.1283  226.3328  348.9637 H   0  0  0  0  0  0  0  0  0  0  0  0  # atno 10270 bound_to 10260
  114.9335  228.4810  350.3702 H   0  0  0  0  0  0  0  0  0  0  0  0  # atno 10298 bound_to 10279
  105.0892  238.9596  356.0386 H   0  0  0  0  0  0  0  0  0  0  0  0  # atno 11356 bound_to 11334
  105.9864  226.1472  351.7774 LP  0  0  0  0  0  0  0  0  0  0  0  0  # atno 13520 bound_to 10121
  105.1542  225.4941  350.4060 LP  0  0  0  0  0  0  0  0  0  0  0  0  # atno 13521 bound_to 10121
  108.4201  224.8844  350.2887 LP  0  0  0  0  0  0  0  0  0  0  0  0  # atno 13522 bound_to 10164
  110.0673  226.3102  349.5791 LP  0  0  0  0  0  0  0  0  0  0  0  0  # atno 13523 bound_to 10167
  111.1678  226.7685  350.8356 LP  0  0  0  0  0  0  0  0  0  0  0  0  # atno 13524 bound_to 10167
  109.1760  228.3237  352.1517 LP  0  0  0  0  0  0  0  0  0  0  0  0  # atno 13525 bound_to 10206
  112.5067  228.9575  349.5935 LP  0  0  0  0  0  0  0  0  0  0  0  0  # atno 13526 bound_to 10209
  112.4978  230.6476  349.9721 LP  0  0  0  0  0  0  0  0  0  0  0  0  # atno 13527 bound_to 10209
  107.9307  231.1838  352.0197 LP  0  0  0  0  0  0  0  0  0  0  0  0  # atno 13528 bound_to 10212
  109.2017  232.2030  351.9073 LP  0  0  0  0  0  0  0  0  0  0  0  0  # atno 13529 bound_to 10212
  111.2133  228.6410  351.6118 LP  0  0  0  0  0  0  0  0  0  0  0  0  # atno 13530 bound_to 10233
  112.5833  228.1894  355.8109 LP  0  0  0  0  0  0  0  0  0  0  0  0  # atno 13531 bound_to 10238
  112.5699  227.5976  354.2890 LP  0  0  0  0  0  0  0  0  0  0  0  0  # atno 13532 bound_to 10238
  113.5915  228.0760  352.4386 LP  0  0  0  0  0  0  0  0  0  0  0  0  # atno 13533 bound_to 10255
  105.1695  238.5946  354.4549 LP  0  0  0  0  0  0  0  0  0  0  0  0  # atno 13550 bound_to 11334
  103.7325  238.9578  355.1402 LP  0  0  0  0  0  0  0  0  0  0  0  0  # atno 13551 bound_to 11334
  115.6064  228.0197  352.3584 LP  0  0  0  0  0  0  0  0  0  0  0  0  # atno 13552 bound_to 10236
  115.1496  229.1575  353.5819 LP  0  0  0  0  0  0  0  0  0  0  0  0  # atno 13553 bound_to 10236
  111.7896  225.7413  349.6756 LP  0  0  0  0  0  0  0  0  0  0  0  0  # atno 13554 bound_to 10260
  112.7783  224.7484  348.8369 LP  0  0  0  0  0  0  0  0  0  0  0  0  # atno 13555 bound_to 10260
  113.6627  227.8180  349.3617 LP  0  0  0  0  0  0  0  0  0  0  0  0  # atno 13556 bound_to 10279

> <Gold.Score>
     Fitness  S(hb_ext) S(vdw_ext)  S(hb_int)    S(int)      intcor
     29.71       1.92      20.70       0.00      -0.68      -0.79

> <Gold.Goldscore.Fitness>
29.7129

> <Gold.Goldscore.Internal.Vdw>
-1.0008

> <Gold.Goldscore.Internal.Torsion>
-0.4624

> <Gold.Goldscore.External.Vdw>
20.7033

> <Gold.Goldscore.Internal.HBond>
0.0000

> <Gold.Goldscore.External.HBond>
1.9218

> <Gold.Goldscore.Internal.Correction>
-0.7872

> <Gold.Goldscore.Hbonds>
donor molecule, donor type, donor heavy atom, donor atom, acceptor molecule, acceptor atom, score
      P1  H 10884 10910       L1    17  0.03
      P1  H 11131 11151       L1    11  0.93

> <Gold.Goldscore.Internal.Vdw.Weighted>
-1.0008

> <Gold.Goldscore.Internal.Torsion.Weighted>
-0.4624

> <Gold.Goldscore.External.Vdw.Weighted>
28.4671

> <Gold.Goldscore.Internal.HBond.Weighted>
0.0000

> <Gold.Goldscore.External.HBond.Weighted>
1.9218

> <Gold.Goldscore.Internal.Correction.Weighted>
-0.7872

> <Gold.Rescore>
     Score     S(PLP)   S(hbond)     S(cho)   S(metal)  DE(clash)   DE(tors)     intcor
     28.40     -25.41       1.03       0.00       0.00       0.00       0.05       ----

> <Gold.PLP.Fitness>
28.3956

> <Gold.PLP.PLP>
-25.4066

> <Gold.PLP.part.hbond>
-1.7442

> <Gold.PLP.part.metal>
0.0000

> <Gold.PLP.part.buried>
-6.5405

> <Gold.PLP.part.nonpolar>
-19.1959

> <Gold.PLP.part.repulsive>
0.5167

> <Gold.PLP.ligand.clash>
0.0000

> <Gold.PLP.ligand.torsion>
0.0544

> <Gold.PLP.Chemscore.Hbond>
1.0326

> <Gold.PLP.Chemscore.CHOScore>
0.0000

> <Gold.PLP.Chemscore.Metal>
0.0000

> <Gold.Chemscore.Hbonds>
donor molecule, donor type, donor heavy atom, donor atom, acceptor molecule, acceptor atom, score
      P1  H 10884 10910       L1    17  0.85
      P1  H 11131 11151       L1    11  1.00

> <Gold.PLP.Chemscore.Internal.Correction>
   9.000000E+99

