#       Name:                CT1002167954
#       Creating user name   hitesit
#       Creation time:       Sun Apr 16 02:25:11 2023


#       File generated by GOLD software.
#

@<TRIPOS>MOLECULE
CT1002167954|ligand_prepared|mol2|1|dock5
    29    30     1
SMALL
NO_CHARGES


@<TRIPOS>ATOM
      1 C1         105.7150 231.2362 353.9805 C.3            1 RES1               0.0000
      2 C2         107.1195 231.2143 354.6175 C.ar           1 RES1               0.0000
      3 C3         104.7357 231.5324 355.1126 C.2            1 RES1               0.0000
      4 C4         105.7549 232.3073 352.8962 C.2            1 RES1               0.0000
      5 C5         105.3089 229.8996 353.3170 C.3            1 RES1               0.0000
      6 C6         107.5541 232.2714 355.4113 C.ar           1 RES1               0.0000
      7 C7         107.9892 230.1445 354.4228 C.ar           1 RES1               0.0000
      8 N8         104.1828 232.7782 355.1599 N.am           1 RES1               0.0000
      9 O9         104.4829 230.6985 355.9734 O.2            1 RES1               0.0000
     10 N10        104.9736 233.4204 353.0642 N.am           1 RES1               0.0000
     11 O11        106.4686 232.2051 351.9060 O.2            1 RES1               0.0000
     12 C12        103.8708 229.8719 352.8238 C.3            1 RES1               0.0000
     13 C13        108.8115 232.2584 355.9920 C.ar           1 RES1               0.0000
     14 C14        109.2463 230.1336 355.0043 C.ar           1 RES1               0.0000
     15 C15        104.2127 233.7186 354.1617 C.2            1 RES1               0.0000
     16 C16        109.6581 231.1895 355.7893 C.ar           1 RES1               0.0000
     17 O17        103.5800 234.7658 354.2627 O.2            1 RES1               0.0000
     18 H18        105.9771 229.7096 352.4680 H              1 RES1               0.0000
     19 H19        105.4491 229.0885 354.0421 H              1 RES1               0.0000
     20 H20        106.9026 233.1224 355.5801 H              1 RES1               0.0000
     21 H21        107.6868 229.3034 353.8082 H              1 RES1               0.0000
     22 H22        103.7028 233.0343 356.0168 H              1 RES1               0.0000
     23 H23        104.9576 234.0887 352.3003 H              1 RES1               0.0000
     24 H24        103.6380 228.9123 352.3671 H              1 RES1               0.0000
     25 H25        103.1776 230.0326 353.6469 H              1 RES1               0.0000
     26 H26        103.7024 230.6500 352.0821 H              1 RES1               0.0000
     27 H27        109.1314 233.0925 356.6078 H              1 RES1               0.0000
     28 H28        109.9095 229.2905 354.8415 H              1 RES1               0.0000
     29 H29        110.6429 231.1793 356.2446 H              1 RES1               0.0000
@<TRIPOS>BOND
    1    1    2 1     
    2    1    3 1     
    3    1    4 1     
    4    1    5 1     
    5    2    6 ar    
    6    2    7 ar    
    7    3    8 1     
    8    3    9 2     
    9    4   10 1     
   10    4   11 2     
   11    5   12 1     
   12    5   18 1     
   13    5   19 1     
   14    6   13 ar    
   15    6   20 1     
   16    7   14 ar    
   17    7   21 1     
   18    8   15 1     
   19    8   22 1     
   20   10   15 1     
   21   10   23 1     
   22   12   24 1     
   23   12   25 1     
   24   12   26 1     
   25   13   16 ar    
   26   13   27 1     
   27   14   16 ar    
   28   14   28 1     
   29   15   17 2     
   30   16   29 1     
@<TRIPOS>SUBSTRUCTURE
      1 RES1           1
@<TRIPOS>SET
DONOR_HYDROGENS      STATIC     ATOMS    <user>   **** ""
2 22 23
ATOM$RED        STATIC     ATOMS    COLORGROUP SYSTEM
2 22 23
@<TRIPOS>COMMENT
> <Gold.Version>
2022.3.0

> <Gold.Id.Protein>
unknown|5uo4_clean|pdb

> <Gold.Protein.RotatedTorsions>
[ 10186 10164 10165 10166 ] final   49.61 input   69.28 | X-H torsion
[ 10196 10172 10171 10170 ] final   86.64 input   60.01 | X-H torsion
[ 10220 10206 10207 10208 ] final  124.92 input  114.40 | X-H torsion
[ 10226 10212 10210 10207 ] final -132.40 input   59.97 | X-H torsion
[ 10244 10233 10234 10235 ] final   30.88 input  114.32 | X-H torsion
[ 10248 10238 10237 10234 ] final  160.93 input   59.98 | X-H torsion
[ 10266 10255 10256 10257 ] final  -77.71 input  104.54 | X-H torsion
[ 11356 11334 11333 11330 ] final  -98.67 input   60.02 | X-H torsion
[ 10270 10260 10259 10256 ] final -160.38 input   59.98 | X-H torsion
[ 10298 10279 10280 10281 ] final  -59.33 input -125.27 | X-H torsion
[ 13520 10121 10120 10119 ] final -126.79 input   -0.00 | X-H torsion
[ 13523 10167 10166 10165 ] final  -64.63 input   -0.00 | X-H torsion
[ 13526 10209 10208 10207 ] final  -94.84 input    0.00 | X-H torsion
[ 13552 10236 10235 10234 ] final  -65.45 input    0.00 | X-H torsion

> <Gold.Protein.ActiveResidues>
 ARG624  LYS625  THR626  SER627  SER628  LEU629  TRP630  LEU643  TYR644  GLN647 
 ILE653  VAL654  ASP655  HIS657  SER658  ALA659  GLU661  SER662 

> <Gold.Protein.RotatedAtoms>
  108.8738  224.4772  350.7900 H   0  0  0  0  0  0  0  0  0  0  0  0  # atno 10186 bound_to 10164
  106.0886  225.3340  356.7419 H   0  0  0  0  0  0  0  0  0  0  0  0  # atno 10196 bound_to 10172
  106.6656  225.0671  358.2721 H   0  0  0  0  0  0  0  0  0  0  0  0  # atno 10197 bound_to 10172
  107.2387  226.3419  357.3820 H   0  0  0  0  0  0  0  0  0  0  0  0  # atno 10198 bound_to 10172
  108.1191  228.7445  351.6188 H   0  0  0  0  0  0  0  0  0  0  0  0  # atno 10220 bound_to 10206
  107.9790  231.6048  351.8972 H   0  0  0  0  0  0  0  0  0  0  0  0  # atno 10226 bound_to 10212
  111.0778  228.4766  351.9922 H   0  0  0  0  0  0  0  0  0  0  0  0  # atno 10244 bound_to 10233
  112.4189  228.2588  355.8605 H   0  0  0  0  0  0  0  0  0  0  0  0  # atno 10248 bound_to 10238
  113.6451  228.2221  352.2928 H   0  0  0  0  0  0  0  0  0  0  0  0  # atno 10266 bound_to 10255
  112.0395  224.8539  349.3287 H   0  0  0  0  0  0  0  0  0  0  0  0  # atno 10270 bound_to 10260
  113.5156  228.0631  349.4078 H   0  0  0  0  0  0  0  0  0  0  0  0  # atno 10298 bound_to 10279
  103.9447  239.0676  355.7656 H   0  0  0  0  0  0  0  0  0  0  0  0  # atno 11356 bound_to 11334
  106.0278  226.4671  350.7413 LP  0  0  0  0  0  0  0  0  0  0  0  0  # atno 13520 bound_to 10121
  105.1128  225.1742  351.4421 LP  0  0  0  0  0  0  0  0  0  0  0  0  # atno 13521 bound_to 10121
  107.1791  224.6610  351.1748 LP  0  0  0  0  0  0  0  0  0  0  0  0  # atno 13522 bound_to 10164
  111.0172  226.2975  350.9366 LP  0  0  0  0  0  0  0  0  0  0  0  0  # atno 13523 bound_to 10167
  110.2179  226.7812  349.4781 LP  0  0  0  0  0  0  0  0  0  0  0  0  # atno 13524 bound_to 10167
  109.3134  227.5189  351.2709 LP  0  0  0  0  0  0  0  0  0  0  0  0  # atno 13525 bound_to 10206
  112.6447  228.9490  349.7504 LP  0  0  0  0  0  0  0  0  0  0  0  0  # atno 13526 bound_to 10209
  112.3598  230.6562  349.8151 LP  0  0  0  0  0  0  0  0  0  0  0  0  # atno 13527 bound_to 10209
  109.5583  231.9726  352.0328 LP  0  0  0  0  0  0  0  0  0  0  0  0  # atno 13528 bound_to 10212
  109.0313  230.4730  352.4069 LP  0  0  0  0  0  0  0  0  0  0  0  0  # atno 13529 bound_to 10212
  110.8330  230.2108  352.0174 LP  0  0  0  0  0  0  0  0  0  0  0  0  # atno 13530 bound_to 10233
  112.7166  227.6002  354.4029 LP  0  0  0  0  0  0  0  0  0  0  0  0  # atno 13531 bound_to 10238
  111.2263  228.1657  354.7577 LP  0  0  0  0  0  0  0  0  0  0  0  0  # atno 13532 bound_to 10238
  112.3018  227.4138  351.5223 LP  0  0  0  0  0  0  0  0  0  0  0  0  # atno 13533 bound_to 10255
  105.5358  238.7877  355.5704 LP  0  0  0  0  0  0  0  0  0  0  0  0  # atno 13550 bound_to 11334
  104.5187  238.6560  354.2996 LP  0  0  0  0  0  0  0  0  0  0  0  0  # atno 13551 bound_to 11334
  115.4824  229.3067  352.4975 LP  0  0  0  0  0  0  0  0  0  0  0  0  # atno 13552 bound_to 10236
  115.2736  227.8705  353.4428 LP  0  0  0  0  0  0  0  0  0  0  0  0  # atno 13553 bound_to 10236
  113.3529  225.5289  348.6443 LP  0  0  0  0  0  0  0  0  0  0  0  0  # atno 13554 bound_to 10260
  112.3109  226.4494  349.5008 LP  0  0  0  0  0  0  0  0  0  0  0  0  # atno 13555 bound_to 10260
  115.0242  228.2194  350.2859 LP  0  0  0  0  0  0  0  0  0  0  0  0  # atno 13556 bound_to 10279

> <Gold.Score>
     Fitness  S(hb_ext) S(vdw_ext)  S(hb_int)    S(int)      intcor
     28.51       1.62      19.61       0.00      -0.06      -0.79

> <Gold.Goldscore.Fitness>
28.5127

> <Gold.Goldscore.Internal.Vdw>
-0.4162

> <Gold.Goldscore.Internal.Torsion>
-0.4330

> <Gold.Goldscore.External.Vdw>
19.6060

> <Gold.Goldscore.Internal.HBond>
0.0000

> <Gold.Goldscore.External.HBond>
1.6163

> <Gold.Goldscore.Internal.Correction>
-0.7872

> <Gold.Goldscore.Hbonds>
donor molecule, donor type, donor heavy atom, donor atom, acceptor molecule, acceptor atom, score
      P1  H 10212 10226       L1    11  0.79
      P1  H 11230 11249       L1    17  0.02

> <Gold.Goldscore.Internal.Vdw.Weighted>
-0.4162

> <Gold.Goldscore.Internal.Torsion.Weighted>
-0.4330

> <Gold.Goldscore.External.Vdw.Weighted>
26.9583

> <Gold.Goldscore.Internal.HBond.Weighted>
0.0000

> <Gold.Goldscore.External.HBond.Weighted>
1.6163

> <Gold.Goldscore.Internal.Correction.Weighted>
-0.7872

> <Gold.Rescore>
     Score     S(PLP)   S(hbond)     S(cho)   S(metal)  DE(clash)   DE(tors)     intcor
     24.65     -22.00       1.06       0.00       0.00       0.00       0.26       ----

> <Gold.PLP.Fitness>
24.6548

> <Gold.PLP.PLP>
-21.9973

> <Gold.PLP.part.hbond>
-3.7586

> <Gold.PLP.part.metal>
0.0000

> <Gold.PLP.part.buried>
-3.4801

> <Gold.PLP.part.nonpolar>
-15.4241

> <Gold.PLP.part.repulsive>
0.0182

> <Gold.PLP.ligand.clash>
0.0000

> <Gold.PLP.ligand.torsion>
0.2558

> <Gold.PLP.Chemscore.Hbond>
1.0564

> <Gold.PLP.Chemscore.CHOScore>
0.0000

> <Gold.PLP.Chemscore.Metal>
0.0000

> <Gold.Chemscore.Hbonds>
donor molecule, donor type, donor heavy atom, donor atom, acceptor molecule, acceptor atom, score
      P1  H 10212 10226       L1    11  1.00

> <Gold.PLP.Chemscore.Internal.Correction>
   9.000000E+99

