#       Name:                CT1002167954
#       Creating user name   hitesit
#       Creation time:       Sun Apr 16 02:25:10 2023


#       File generated by GOLD software.
#

@<TRIPOS>MOLECULE
CT1002167954|ligand_prepared|mol2|1|dock1
    29    30     1
SMALL
NO_CHARGES


@<TRIPOS>ATOM
      1 C1         107.6429 229.7884 355.6228 C.3            1 RES1               0.0000
      2 C2         108.3999 231.0286 356.1401 C.ar           1 RES1               0.0000
      3 C3         106.1657 230.1698 355.5926 C.2            1 RES1               0.0000
      4 C4         108.2314 229.4701 354.2528 C.2            1 RES1               0.0000
      5 C5         107.8089 228.5373 356.5165 C.3            1 RES1               0.0000
      6 C6         109.7314 230.9331 356.5334 C.ar           1 RES1               0.0000
      7 C7         107.7820 232.2733 356.2270 C.ar           1 RES1               0.0000
      8 N8         105.5976 230.4008 354.3745 N.am           1 RES1               0.0000
      9 O9         105.5193 230.3045 356.6242 O.2            1 RES1               0.0000
     10 N10        107.4185 229.6047 353.1578 N.am           1 RES1               0.0000
     11 O11        109.3964 229.1200 354.1099 O.2            1 RES1               0.0000
     12 C12        107.6634 228.8220 358.0031 C.3            1 RES1               0.0000
     13 C13        110.4212 232.0422 356.9942 C.ar           1 RES1               0.0000
     14 C14        108.4736 233.3812 356.6883 C.ar           1 RES1               0.0000
     15 C15        106.1374 230.0852 353.1535 C.2            1 RES1               0.0000
     16 C16        109.7930 233.2670 357.0715 C.ar           1 RES1               0.0000
     17 O17        105.4887 230.2286 352.1212 O.2            1 RES1               0.0000
     18 H18        107.0583 227.7926 356.2244 H              1 RES1               0.0000
     19 H19        108.8000 228.1031 356.3355 H              1 RES1               0.0000
     20 H20        110.2416 229.9770 356.4819 H              1 RES1               0.0000
     21 H21        106.7444 232.3866 355.9320 H              1 RES1               0.0000
     22 H22        104.6873 230.8498 354.3710 H              1 RES1               0.0000
     23 H23        107.8042 229.3203 352.2630 H              1 RES1               0.0000
     24 H24        107.7888 227.9109 358.5843 H              1 RES1               0.0000
     25 H25        108.4110 229.5402 358.3333 H              1 RES1               0.0000
     26 H26        106.6796 229.2315 358.2228 H              1 RES1               0.0000
     27 H27        111.4590 231.9467 357.2958 H              1 RES1               0.0000
     28 H28        107.9751 234.3431 356.7480 H              1 RES1               0.0000
     29 H29        110.3337 234.1358 357.4321 H              1 RES1               0.0000
@<TRIPOS>BOND
    1    1    2 1     
    2    1    3 1     
    3    1    4 1     
    4    1    5 1     
    5    2    6 ar    
    6    2    7 ar    
    7    3    8 1     
    8    3    9 2     
    9    4   10 1     
   10    4   11 2     
   11    5   12 1     
   12    5   18 1     
   13    5   19 1     
   14    6   13 ar    
   15    6   20 1     
   16    7   14 ar    
   17    7   21 1     
   18    8   15 1     
   19    8   22 1     
   20   10   15 1     
   21   10   23 1     
   22   12   24 1     
   23   12   25 1     
   24   12   26 1     
   25   13   16 ar    
   26   13   27 1     
   27   14   16 ar    
   28   14   28 1     
   29   15   17 2     
   30   16   29 1     
@<TRIPOS>SUBSTRUCTURE
      1 RES1           1
@<TRIPOS>SET
DONOR_HYDROGENS      STATIC     ATOMS    <user>   **** ""
2 22 23
ATOM$RED        STATIC     ATOMS    COLORGROUP SYSTEM
2 22 23
@<TRIPOS>COMMENT
> <Gold.Version>
2022.3.0

> <Gold.Id.Protein>
unknown|5uo4_clean|pdb

> <Gold.Protein.RotatedTorsions>
[ 10186 10164 10165 10166 ] final  -44.59 input   69.28 | X-H torsion
[ 10196 10172 10171 10170 ] final  -71.26 input   60.01 | X-H torsion
[ 10220 10206 10207 10208 ] final  -95.12 input  114.40 | X-H torsion
[ 10226 10212 10210 10207 ] final -100.57 input   59.97 | X-H torsion
[ 10244 10233 10234 10235 ] final   27.53 input  114.32 | X-H torsion
[ 10248 10238 10237 10234 ] final   31.45 input   59.98 | X-H torsion
[ 10266 10255 10256 10257 ] final -107.81 input  104.54 | X-H torsion
[ 11356 11334 11333 11330 ] final   -4.26 input   60.02 | X-H torsion
[ 10270 10260 10259 10256 ] final -133.06 input   59.98 | X-H torsion
[ 10298 10279 10280 10281 ] final    9.15 input -125.27 | X-H torsion
[ 13520 10121 10120 10119 ] final  171.23 input   -0.00 | X-H torsion
[ 13523 10167 10166 10165 ] final  171.38 input   -0.00 | X-H torsion
[ 13526 10209 10208 10207 ] final    8.43 input    0.00 | X-H torsion
[ 13552 10236 10235 10234 ] final   -1.25 input    0.00 | X-H torsion

> <Gold.Protein.ActiveResidues>
 ARG624  LYS625  THR626  SER627  SER628  LEU629  TRP630  LEU643  TYR644  GLN647 
 ILE653  VAL654  ASP655  HIS657  SER658  ALA659  GLU661  SER662 

> <Gold.Protein.RotatedAtoms>
  107.8382  225.0498  350.2639 H   0  0  0  0  0  0  0  0  0  0  0  0  # atno 10186 bound_to 10164
  107.3223  226.0865  357.9421 H   0  0  0  0  0  0  0  0  0  0  0  0  # atno 10196 bound_to 10172
  106.4138  225.8381  356.5788 H   0  0  0  0  0  0  0  0  0  0  0  0  # atno 10197 bound_to 10172
  106.2569  224.8181  357.8754 H   0  0  0  0  0  0  0  0  0  0  0  0  # atno 10198 bound_to 10172
  108.8998  227.5081  350.8391 H   0  0  0  0  0  0  0  0  0  0  0  0  # atno 10220 bound_to 10206
  107.9513  231.1130  352.0424 H   0  0  0  0  0  0  0  0  0  0  0  0  # atno 10226 bound_to 10212
  111.1000  228.4819  351.9452 H   0  0  0  0  0  0  0  0  0  0  0  0  # atno 10244 bound_to 10233
  112.5921  227.6023  354.3097 H   0  0  0  0  0  0  0  0  0  0  0  0  # atno 10248 bound_to 10238
  113.5169  227.8960  352.5885 H   0  0  0  0  0  0  0  0  0  0  0  0  # atno 10266 bound_to 10255
  111.8241  225.1804  349.5354 H   0  0  0  0  0  0  0  0  0  0  0  0  # atno 10270 bound_to 10260
  114.2750  227.4060  349.3496 H   0  0  0  0  0  0  0  0  0  0  0  0  # atno 10298 bound_to 10279
  104.1388  238.7464  354.4440 H   0  0  0  0  0  0  0  0  0  0  0  0  # atno 11356 bound_to 11334
  106.0725  226.2939  351.6150 LP  0  0  0  0  0  0  0  0  0  0  0  0  # atno 13520 bound_to 10121
  105.0681  225.3474  350.5683 LP  0  0  0  0  0  0  0  0  0  0  0  0  # atno 13521 bound_to 10121
  108.1909  224.1017  351.6889 LP  0  0  0  0  0  0  0  0  0  0  0  0  # atno 13522 bound_to 10164
  110.7191  227.3140  349.8336 LP  0  0  0  0  0  0  0  0  0  0  0  0  # atno 13523 bound_to 10167
  110.5160  225.7648  350.5811 LP  0  0  0  0  0  0  0  0  0  0  0  0  # atno 13524 bound_to 10167
  108.5480  228.7309  352.0352 LP  0  0  0  0  0  0  0  0  0  0  0  0  # atno 13525 bound_to 10206
  111.9261  229.9321  349.1493 LP  0  0  0  0  0  0  0  0  0  0  0  0  # atno 13526 bound_to 10209
  113.0784  229.6731  350.4163 LP  0  0  0  0  0  0  0  0  0  0  0  0  # atno 13527 bound_to 10209
  109.1300  232.2245  351.8896 LP  0  0  0  0  0  0  0  0  0  0  0  0  # atno 13528 bound_to 10212
  109.4875  230.7164  352.4038 LP  0  0  0  0  0  0  0  0  0  0  0  0  # atno 13529 bound_to 10212
  110.8117  230.2057  352.0626 LP  0  0  0  0  0  0  0  0  0  0  0  0  # atno 13530 bound_to 10233
  111.2104  228.2261  354.9005 LP  0  0  0  0  0  0  0  0  0  0  0  0  # atno 13531 bound_to 10238
  112.5581  228.2010  355.8222 LP  0  0  0  0  0  0  0  0  0  0  0  0  # atno 13532 bound_to 10238
  112.4272  227.7329  351.2329 LP  0  0  0  0  0  0  0  0  0  0  0  0  # atno 13533 bound_to 10255
  104.2642  239.0771  356.0324 LP  0  0  0  0  0  0  0  0  0  0  0  0  # atno 13550 bound_to 11334
  105.5948  238.6901  355.1685 LP  0  0  0  0  0  0  0  0  0  0  0  0  # atno 13551 bound_to 11334
  115.2041  229.3346  353.3743 LP  0  0  0  0  0  0  0  0  0  0  0  0  # atno 13552 bound_to 10236
  115.5519  227.8427  352.5660 LP  0  0  0  0  0  0  0  0  0  0  0  0  # atno 13553 bound_to 10236
  113.1918  225.1138  348.6557 LP  0  0  0  0  0  0  0  0  0  0  0  0  # atno 13554 bound_to 10260
  112.6887  226.5358  349.2815 LP  0  0  0  0  0  0  0  0  0  0  0  0  # atno 13555 bound_to 10260
  114.2950  228.8504  350.3418 LP  0  0  0  0  0  0  0  0  0  0  0  0  # atno 13556 bound_to 10279

> <Gold.Score>
     Fitness  S(hb_ext) S(vdw_ext)  S(hb_int)    S(int)      intcor
     28.90       6.35      18.68       0.00      -3.12      -0.80

> <Gold.Goldscore.Fitness>
28.9050

> <Gold.Goldscore.Internal.Vdw>
-3.1956

> <Gold.Goldscore.Internal.Torsion>
-0.7297

> <Gold.Goldscore.External.Vdw>
18.6797

> <Gold.Goldscore.Internal.HBond>
0.0000

> <Gold.Goldscore.External.HBond>
6.3451

> <Gold.Goldscore.Internal.Correction>
-0.8006

> <Gold.Goldscore.Hbonds>
donor molecule, donor type, donor heavy atom, donor atom, acceptor molecule, acceptor atom, score
      P1  H 10212 10226       L1    17  0.17
      L1  H    10    23       P1 10206  1.00

> <Gold.Goldscore.Internal.Vdw.Weighted>
-3.1956

> <Gold.Goldscore.Internal.Torsion.Weighted>
-0.7297

> <Gold.Goldscore.External.Vdw.Weighted>
25.6846

> <Gold.Goldscore.Internal.HBond.Weighted>
0.0000

> <Gold.Goldscore.External.HBond.Weighted>
6.3451

> <Gold.Goldscore.Internal.Correction.Weighted>
-0.8006

> <Gold.Rescore>
     Score     S(PLP)   S(hbond)     S(cho)   S(metal)  DE(clash)   DE(tors)     intcor
     31.91     -30.46       0.99       0.00       0.00       1.17       0.17       ----

> <Gold.PLP.Fitness>
31.9097

> <Gold.PLP.PLP>
-30.4586

> <Gold.PLP.part.hbond>
-4.2627

> <Gold.PLP.part.metal>
0.0000

> <Gold.PLP.part.buried>
-4.6532

> <Gold.PLP.part.nonpolar>
-21.8669

> <Gold.PLP.part.repulsive>
0.1005

> <Gold.PLP.ligand.clash>
1.1743

> <Gold.PLP.ligand.torsion>
0.1742

> <Gold.PLP.Chemscore.Hbond>
0.9913

> <Gold.PLP.Chemscore.CHOScore>
0.0000

> <Gold.PLP.Chemscore.Metal>
0.0000

> <Gold.Chemscore.Hbonds>
donor molecule, donor type, donor heavy atom, donor atom, acceptor molecule, acceptor atom, score
      L1  H    10    23       P1 10206  1.00

> <Gold.PLP.Chemscore.Internal.Correction>
   9.000000E+99

