#       Name:                CT1002167954
#       Creating user name   hitesit
#       Creation time:       Sun Apr 16 02:25:13 2023


#       File generated by GOLD software.
#

@<TRIPOS>MOLECULE
CT1002167954|ligand_prepared|mol2|1|dock9
    29    30     1
SMALL
NO_CHARGES


@<TRIPOS>ATOM
      1 C1         106.0581 230.9895 354.5007 C.3            1 RES1               0.0000
      2 C2         107.4700 231.0629 355.1171 C.ar           1 RES1               0.0000
      3 C3         105.2763 232.1651 355.0796 C.2            1 RES1               0.0000
      4 C4         106.2485 231.0529 352.9893 C.2            1 RES1               0.0000
      5 C5         105.2987 229.6838 354.8323 C.3            1 RES1               0.0000
      6 C6         108.3187 229.9607 355.0772 C.ar           1 RES1               0.0000
      7 C7         107.9380 232.2246 355.7254 C.ar           1 RES1               0.0000
      8 N8         105.0314 233.2264 354.2589 N.am           1 RES1               0.0000
      9 O9         104.9146 232.1778 356.2497 O.2            1 RES1               0.0000
     10 N10        105.7623 232.1491 352.3263 N.am           1 RES1               0.0000
     11 O11        106.8300 230.1713 352.3688 O.2            1 RES1               0.0000
     12 C12        105.4364 229.2456 356.2818 C.3            1 RES1               0.0000
     13 C13        109.5903 230.0186 355.6231 C.ar           1 RES1               0.0000
     14 C14        109.2100 232.2802 356.2709 C.ar           1 RES1               0.0000
     15 C15        105.1895 233.2532 352.8965 C.2            1 RES1               0.0000
     16 C16        110.0370 231.1783 356.2198 C.ar           1 RES1               0.0000
     17 O17        104.8263 234.2238 352.2385 O.2            1 RES1               0.0000
     18 H18        104.2349 229.8269 354.6062 H              1 RES1               0.0000
     19 H19        105.6744 228.8825 354.1840 H              1 RES1               0.0000
     20 H20        107.9837 229.0386 354.6139 H              1 RES1               0.0000
     21 H21        107.3044 233.1034 355.7781 H              1 RES1               0.0000
     22 H22        104.7001 234.0791 354.6988 H              1 RES1               0.0000
     23 H23        105.8337 232.1413 351.3138 H              1 RES1               0.0000
     24 H24        104.8849 228.3249 356.4605 H              1 RES1               0.0000
     25 H25        106.4801 229.0698 356.5342 H              1 RES1               0.0000
     26 H26        105.0490 230.0086 356.9538 H              1 RES1               0.0000
     27 H27        110.2368 229.1482 355.5815 H              1 RES1               0.0000
     28 H28        109.5571 233.1949 356.7401 H              1 RES1               0.0000
     29 H29        111.0333 231.2235 356.6470 H              1 RES1               0.0000
@<TRIPOS>BOND
    1    1    2 1     
    2    1    3 1     
    3    1    4 1     
    4    1    5 1     
    5    2    6 ar    
    6    2    7 ar    
    7    3    8 1     
    8    3    9 2     
    9    4   10 1     
   10    4   11 2     
   11    5   12 1     
   12    5   18 1     
   13    5   19 1     
   14    6   13 ar    
   15    6   20 1     
   16    7   14 ar    
   17    7   21 1     
   18    8   15 1     
   19    8   22 1     
   20   10   15 1     
   21   10   23 1     
   22   12   24 1     
   23   12   25 1     
   24   12   26 1     
   25   13   16 ar    
   26   13   27 1     
   27   14   16 ar    
   28   14   28 1     
   29   15   17 2     
   30   16   29 1     
@<TRIPOS>SUBSTRUCTURE
      1 RES1           1
@<TRIPOS>SET
DONOR_HYDROGENS      STATIC     ATOMS    <user>   **** ""
2 22 23
ATOM$RED        STATIC     ATOMS    COLORGROUP SYSTEM
2 22 23
@<TRIPOS>COMMENT
> <Gold.Version>
2022.3.0

> <Gold.Id.Protein>
unknown|5uo4_clean|pdb

> <Gold.Protein.RotatedTorsions>
[ 10186 10164 10165 10166 ] final -107.78 input   69.28 | X-H torsion
[ 10196 10172 10171 10170 ] final -138.48 input   60.01 | X-H torsion
[ 10220 10206 10207 10208 ] final   51.17 input  114.40 | X-H torsion
[ 10226 10212 10210 10207 ] final    5.82 input   59.97 | X-H torsion
[ 10244 10233 10234 10235 ] final  104.86 input  114.32 | X-H torsion
[ 10248 10238 10237 10234 ] final  130.93 input   59.98 | X-H torsion
[ 10266 10255 10256 10257 ] final  -73.59 input  104.54 | X-H torsion
[ 11356 11334 11333 11330 ] final -135.84 input   60.02 | X-H torsion
[ 10270 10260 10259 10256 ] final   71.89 input   59.98 | X-H torsion
[ 10298 10279 10280 10281 ] final   12.27 input -125.27 | X-H torsion
[ 13520 10121 10120 10119 ] final   77.06 input   -0.00 | X-H torsion
[ 13523 10167 10166 10165 ] final  -96.61 input   -0.00 | X-H torsion
[ 13526 10209 10208 10207 ] final  -22.39 input    0.00 | X-H torsion
[ 13552 10236 10235 10234 ] final  -68.00 input    0.00 | X-H torsion

> <Gold.Protein.ActiveResidues>
 ARG624  LYS625  THR626  SER627  SER628  LEU629  TRP630  LEU643  TYR644  GLN647 
 ILE653  VAL654  ASP655  HIS657  SER658  ALA659  GLU661  SER662 

> <Gold.Protein.RotatedAtoms>
  107.1815  224.8415  350.8829 H   0  0  0  0  0  0  0  0  0  0  0  0  # atno 10186 bound_to 10164
  106.8361  225.2337  358.3404 H   0  0  0  0  0  0  0  0  0  0  0  0  # atno 10196 bound_to 10172
  107.1340  226.3552  357.1577 H   0  0  0  0  0  0  0  0  0  0  0  0  # atno 10197 bound_to 10172
  106.0227  225.1537  356.8981 H   0  0  0  0  0  0  0  0  0  0  0  0  # atno 10198 bound_to 10172
  108.9784  228.5142  352.1921 H   0  0  0  0  0  0  0  0  0  0  0  0  # atno 10220 bound_to 10206
  109.3056  230.5878  352.4126 H   0  0  0  0  0  0  0  0  0  0  0  0  # atno 10226 bound_to 10212
  110.6296  229.0540  352.7780 H   0  0  0  0  0  0  0  0  0  0  0  0  # atno 10244 bound_to 10233
  112.8062  228.0634  355.6447 H   0  0  0  0  0  0  0  0  0  0  0  0  # atno 10248 bound_to 10238
  113.6487  228.2599  352.2418 H   0  0  0  0  0  0  0  0  0  0  0  0  # atno 10266 bound_to 10255
  113.3634  225.6531  348.6679 H   0  0  0  0  0  0  0  0  0  0  0  0  # atno 10270 bound_to 10260
  114.3200  227.3962  349.3652 H   0  0  0  0  0  0  0  0  0  0  0  0  # atno 10298 bound_to 10279
  104.4434  239.0668  356.0935 H   0  0  0  0  0  0  0  0  0  0  0  0  # atno 11356 bound_to 11334
  105.2834  225.3070  351.7272 LP  0  0  0  0  0  0  0  0  0  0  0  0  # atno 13520 bound_to 10121
  105.8572  226.3343  350.4562 LP  0  0  0  0  0  0  0  0  0  0  0  0  # atno 13521 bound_to 10121
  108.8325  224.3051  351.0841 LP  0  0  0  0  0  0  0  0  0  0  0  0  # atno 13522 bound_to 10164
  111.1641  226.7426  350.8476 LP  0  0  0  0  0  0  0  0  0  0  0  0  # atno 13523 bound_to 10167
  110.0710  226.3361  349.5671 LP  0  0  0  0  0  0  0  0  0  0  0  0  # atno 13524 bound_to 10167
  108.4710  227.7446  350.7089 LP  0  0  0  0  0  0  0  0  0  0  0  0  # atno 13525 bound_to 10206
  112.0128  229.4801  349.1452 LP  0  0  0  0  0  0  0  0  0  0  0  0  # atno 13526 bound_to 10209
  112.9917  230.1250  350.4204 LP  0  0  0  0  0  0  0  0  0  0  0  0  # atno 13527 bound_to 10209
  107.9215  231.3237  351.9758 LP  0  0  0  0  0  0  0  0  0  0  0  0  # atno 13528 bound_to 10212
  109.3319  232.1462  351.9448 LP  0  0  0  0  0  0  0  0  0  0  0  0  # atno 13529 bound_to 10212
  111.2650  229.6545  351.2601 LP  0  0  0  0  0  0  0  0  0  0  0  0  # atno 13530 bound_to 10233
  112.2921  227.6281  354.1637 LP  0  0  0  0  0  0  0  0  0  0  0  0  # atno 13531 bound_to 10238
  111.2607  228.3345  355.2143 LP  0  0  0  0  0  0  0  0  0  0  0  0  # atno 13532 bound_to 10238
  112.2983  227.3768  351.5722 LP  0  0  0  0  0  0  0  0  0  0  0  0  # atno 13533 bound_to 10255
  105.5609  238.6544  354.9848 LP  0  0  0  0  0  0  0  0  0  0  0  0  # atno 13550 bound_to 11334
  103.9914  238.7901  354.5550 LP  0  0  0  0  0  0  0  0  0  0  0  0  # atno 13551 bound_to 11334
  115.4932  229.2846  352.4678 LP  0  0  0  0  0  0  0  0  0  0  0  0  # atno 13552 bound_to 10236
  115.2629  227.8927  353.4725 LP  0  0  0  0  0  0  0  0  0  0  0  0  # atno 13553 bound_to 10236
  112.2110  226.3890  349.5507 LP  0  0  0  0  0  0  0  0  0  0  0  0  # atno 13554 bound_to 10260
  112.1204  224.7848  349.2595 LP  0  0  0  0  0  0  0  0  0  0  0  0  # atno 13555 bound_to 10260
  114.2518  228.8598  350.3268 LP  0  0  0  0  0  0  0  0  0  0  0  0  # atno 13556 bound_to 10279

> <Gold.Score>
     Fitness  S(hb_ext) S(vdw_ext)  S(hb_int)    S(int)      intcor
     24.57       0.00      20.08       0.00      -3.04      -0.76

> <Gold.Goldscore.Fitness>
24.5669

> <Gold.Goldscore.Internal.Vdw>
-2.9815

> <Gold.Goldscore.Internal.Torsion>
-0.8156

> <Gold.Goldscore.External.Vdw>
20.0780

> <Gold.Goldscore.Internal.HBond>
0.0000

> <Gold.Goldscore.External.HBond>
0.0000

> <Gold.Goldscore.Internal.Correction>
-0.7567

> <Gold.Goldscore.Internal.Vdw.Weighted>
-2.9815

> <Gold.Goldscore.Internal.Torsion.Weighted>
-0.8156

> <Gold.Goldscore.External.Vdw.Weighted>
27.6072

> <Gold.Goldscore.Internal.HBond.Weighted>
0.0000

> <Gold.Goldscore.External.HBond.Weighted>
0.0000

> <Gold.Goldscore.Internal.Correction.Weighted>
-0.7567

> <Gold.Rescore>
     Score     S(PLP)   S(hbond)     S(cho)   S(metal)  DE(clash)   DE(tors)     intcor
     18.04     -19.60       0.00       0.00       0.00       1.02       0.27       ----

> <Gold.PLP.Fitness>
18.0366

> <Gold.PLP.PLP>
-19.5987

> <Gold.PLP.part.hbond>
-1.8129

> <Gold.PLP.part.metal>
0.0000

> <Gold.PLP.part.buried>
-6.0603

> <Gold.PLP.part.nonpolar>
-11.6753

> <Gold.PLP.part.repulsive>
0.0974

> <Gold.PLP.ligand.clash>
1.0156

> <Gold.PLP.ligand.torsion>
0.2733

> <Gold.PLP.Chemscore.Hbond>
0.0000

> <Gold.PLP.Chemscore.CHOScore>
0.0000

> <Gold.PLP.Chemscore.Metal>
0.0000

> <Gold.PLP.Chemscore.Internal.Correction>
   9.000000E+99

