#       Name:                CT1002167954
#       Creating user name   hitesit
#       Creation time:       Sun Apr 16 02:21:46 2023


#       File generated by GOLD software.
#

@<TRIPOS>MOLECULE
CT1002167954|ligand_prepared|mol2|1|dock10
    29    30     1
SMALL
NO_CHARGES


@<TRIPOS>ATOM
      1 C1          64.0233  -6.2617  12.7824 C.3            1 RES1               0.0000
      2 C2          63.1533  -6.3412  14.0535 C.ar           1 RES1               0.0000
      3 C3          65.4730  -6.2257  13.2570 C.2            1 RES1               0.0000
      4 C4          63.6722  -7.4884  11.9478 C.2            1 RES1               0.0000
      5 C5          63.7572  -5.0055  11.9207 C.3            1 RES1               0.0000
      6 C6          62.4891  -7.5183  14.3851 C.ar           1 RES1               0.0000
      7 C7          63.0078  -5.2486  14.9042 C.ar           1 RES1               0.0000
      8 N8          66.2209  -7.3538  13.0896 N.am           1 RES1               0.0000
      9 O9          65.9413  -5.2358  13.8058 O.2            1 RES1               0.0000
     10 N10         64.6449  -8.4344  11.7560 N.am           1 RES1               0.0000
     11 O11         62.5571  -7.6524  11.4684 O.2            1 RES1               0.0000
     12 C12         64.4953  -5.0062  10.5914 C.3            1 RES1               0.0000
     13 C13         61.7100  -7.6011  15.5272 C.ar           1 RES1               0.0000
     14 C14         62.2280  -5.3335  16.0457 C.ar           1 RES1               0.0000
     15 C15         65.8940  -8.4374  12.3147 C.2            1 RES1               0.0000
     16 C16         61.5793  -6.5091  16.3585 C.ar           1 RES1               0.0000
     17 O17         66.6945  -9.3515  12.1389 O.2            1 RES1               0.0000
     18 H18         62.6800  -4.9322  11.7265 H              1 RES1               0.0000
     19 H19         64.0564  -4.1168  12.4902 H              1 RES1               0.0000
     20 H20         62.5781  -8.3873  13.7417 H              1 RES1               0.0000
     21 H21         63.5081  -4.3132  14.6775 H              1 RES1               0.0000
     22 H22         67.1049  -7.3956  13.5866 H              1 RES1               0.0000
     23 H23         64.4168  -9.2078  11.1395 H              1 RES1               0.0000
     24 H24         64.2737  -4.1031  10.0266 H              1 RES1               0.0000
     25 H25         65.5711  -5.0528  10.7475 H              1 RES1               0.0000
     26 H26         64.2029  -5.8633   9.9883 H              1 RES1               0.0000
     27 H27         61.2004  -8.5282  15.7682 H              1 RES1               0.0000
     28 H28         62.1275  -4.4713  16.6967 H              1 RES1               0.0000
     29 H29         60.9692  -6.5743  17.2533 H              1 RES1               0.0000
@<TRIPOS>BOND
    1    1    2 1     
    2    1    3 1     
    3    1    4 1     
    4    1    5 1     
    5    2    6 ar    
    6    2    7 ar    
    7    3    8 1     
    8    3    9 2     
    9    4   10 1     
   10    4   11 2     
   11    5   12 1     
   12    5   18 1     
   13    5   19 1     
   14    6   13 ar    
   15    6   20 1     
   16    7   14 ar    
   17    7   21 1     
   18    8   15 1     
   19    8   22 1     
   20   10   15 1     
   21   10   23 1     
   22   12   24 1     
   23   12   25 1     
   24   12   26 1     
   25   13   16 ar    
   26   13   27 1     
   27   14   16 ar    
   28   14   28 1     
   29   15   17 2     
   30   16   29 1     
@<TRIPOS>SUBSTRUCTURE
      1 RES1           1
@<TRIPOS>SET
DONOR_HYDROGENS      STATIC     ATOMS    <user>   **** ""
2 22 23
ATOM$RED        STATIC     ATOMS    COLORGROUP SYSTEM
2 22 23
@<TRIPOS>COMMENT
> <Gold.Version>
2022.3.0

> <Gold.Id.Protein>
unknown|4g3y_cavity_clean|pdb

> <Gold.Protein.RotatedTorsions>
[ 8140 8133 8131 8128 ] final -173.86 input   60.03 | X-H torsion
[ 8349 8342 8340 8337 ] final  136.57 input   60.00 | X-H torsion
[ 8379 8374 8373 8370 ] final -176.49 input   60.00 | X-H torsion
[ 5333 5330 5329 5326 ] final  -48.17 input   60.01 | X-H torsion
[ 8399 8388 8387 8386 ] final  -78.80 input   60.01 | X-H torsion
[ 5404 5399 5398 5395 ] final   84.82 input   59.99 | X-H torsion
[ 5434 5429 5428 5425 ] final   54.35 input   59.99 | X-H torsion
[ 7810 7801 7800 7798 ] final  -51.95 input   60.01 | X-H torsion

> <Gold.Protein.ActiveResidues>
 LEU148  LYS150  PHE173  PRO174  ALA175  VAL176  GLN178  SER179  SER184  LEU185 
 SER186  TYR140  ARG142  VAL163  THR164  GLU165  GLN166  ASP167  LEU179  THR180 
 LEU181  SER182  LYS183 

> <Gold.Protein.RotatedAtoms>
   62.5997   -9.0868    9.4715 H   0  0  0  0  0  0  0  0  0  0  0  0  # atno 5333 bound_to 5330
   59.3131  -11.1727   18.7409 H   0  0  0  0  0  0  0  0  0  0  0  0  # atno 5404 bound_to 5399
   57.9172   -6.8836   22.8951 H   0  0  0  0  0  0  0  0  0  0  0  0  # atno 5434 bound_to 5429
   45.7883   14.5110   20.6258 H   0  0  0  0  0  0  0  0  0  0  0  0  # atno 7810 bound_to 7801
   49.3385    2.6279   24.5100 H   0  0  0  0  0  0  0  0  0  0  0  0  # atno 8140 bound_to 8133
   63.9701   -7.7220   17.0026 H   0  0  0  0  0  0  0  0  0  0  0  0  # atno 8349 bound_to 8342
   75.1562  -11.2283   14.6188 H   0  0  0  0  0  0  0  0  0  0  0  0  # atno 8379 bound_to 8374
   74.6152  -17.5254   24.4220 H   0  0  0  0  0  0  0  0  0  0  0  0  # atno 8399 bound_to 8388
   75.3043  -18.1657   23.0573 H   0  0  0  0  0  0  0  0  0  0  0  0  # atno 8400 bound_to 8388
   76.2563  -17.7458   24.3486 H   0  0  0  0  0  0  0  0  0  0  0  0  # atno 8401 bound_to 8388
   48.5294    3.2487   23.2419 LP  0  0  0  0  0  0  0  0  0  0  0  0  # atno 8830 bound_to 8133
   50.1399    2.9974   23.1428 LP  0  0  0  0  0  0  0  0  0  0  0  0  # atno 8831 bound_to 8133
   64.8616   -7.1850   18.2539 LP  0  0  0  0  0  0  0  0  0  0  0  0  # atno 8862 bound_to 8342
   64.7794   -8.7840   17.9331 LP  0  0  0  0  0  0  0  0  0  0  0  0  # atno 8863 bound_to 8342
   75.1113  -11.2857   16.2448 LP  0  0  0  0  0  0  0  0  0  0  0  0  # atno 8874 bound_to 8374
   74.3403  -10.0883   15.4457 LP  0  0  0  0  0  0  0  0  0  0  0  0  # atno 8875 bound_to 8374
   63.7581   -8.8144    8.3611 LP  0  0  0  0  0  0  0  0  0  0  0  0  # atno 8878 bound_to 5330
   63.3602  -10.3440    8.7715 LP  0  0  0  0  0  0  0  0  0  0  0  0  # atno 8879 bound_to 5330
   58.3439  -10.2668   19.6827 LP  0  0  0  0  0  0  0  0  0  0  0  0  # atno 8884 bound_to 5399
   59.6326   -9.5901   18.9423 LP  0  0  0  0  0  0  0  0  0  0  0  0  # atno 8885 bound_to 5399
   58.3410   -7.4299   24.3681 LP  0  0  0  0  0  0  0  0  0  0  0  0  # atno 8890 bound_to 5429
   58.7119   -5.9034   23.9223 LP  0  0  0  0  0  0  0  0  0  0  0  0  # atno 8891 bound_to 5429
   45.6843   15.9245   21.4248 LP  0  0  0  0  0  0  0  0  0  0  0  0  # atno 8894 bound_to 7801
   44.6343   14.7179   21.7539 LP  0  0  0  0  0  0  0  0  0  0  0  0  # atno 8895 bound_to 7801

> <Gold.Score>
     Fitness  S(hb_ext) S(vdw_ext)  S(hb_int)    S(int)      intcor
     35.10       2.01      25.56       0.00      -2.05      -0.76

> <Gold.Goldscore.Fitness>
35.1011

> <Gold.Goldscore.Internal.Vdw>
-2.3729

> <Gold.Goldscore.Internal.Torsion>
-0.4367

> <Gold.Goldscore.External.Vdw>
25.5596

> <Gold.Goldscore.Internal.HBond>
0.0000

> <Gold.Goldscore.External.HBond>
2.0105

> <Gold.Goldscore.Internal.Correction>
-0.7558

> <Gold.Goldscore.Hbonds>
donor molecule, donor type, donor heavy atom, donor atom, acceptor molecule, acceptor atom, score
      P1  H  5325  5334       L1    11  0.67
      P1  H  5330  5333       L1    11  0.21
      L1  H     8    22       P1  8339  0.12

> <Gold.Goldscore.Internal.Vdw.Weighted>
-2.3729

> <Gold.Goldscore.Internal.Torsion.Weighted>
-0.4367

> <Gold.Goldscore.External.Vdw.Weighted>
35.1445

> <Gold.Goldscore.Internal.HBond.Weighted>
0.0000

> <Gold.Goldscore.External.HBond.Weighted>
2.0105

> <Gold.Goldscore.Internal.Correction.Weighted>
-0.7558

> <Gold.Rescore>
     Score     S(PLP)   S(hbond)     S(cho)   S(metal)  DE(clash)   DE(tors)     intcor
     38.35     -34.74       2.00       0.00       0.00       1.70       0.35       ----

> <Gold.PLP.Fitness>
38.3543

> <Gold.PLP.PLP>
-34.7445

> <Gold.PLP.part.hbond>
-2.8152

> <Gold.PLP.part.metal>
0.0000

> <Gold.PLP.part.buried>
0.8717

> <Gold.PLP.part.nonpolar>
-32.2625

> <Gold.PLP.part.repulsive>
0.3039

> <Gold.PLP.ligand.clash>
1.6956

> <Gold.PLP.ligand.torsion>
0.3473

> <Gold.PLP.Chemscore.Hbond>
2.0000

> <Gold.PLP.Chemscore.CHOScore>
0.0000

> <Gold.PLP.Chemscore.Metal>
0.0000

> <Gold.Chemscore.Hbonds>
donor molecule, donor type, donor heavy atom, donor atom, acceptor molecule, acceptor atom, score
      P1  H  5330  5333       L1    11  0.10

> <Gold.PLP.Chemscore.Internal.Correction>
   9.000000E+99

