#       Name:                CT1002167954
#       Creating user name   hitesit
#       Creation time:       Sun Apr 16 02:21:35 2023


#       File generated by GOLD software.
#

@<TRIPOS>MOLECULE
CT1002167954|ligand_prepared|mol2|1|dock1
    29    30     1
SMALL
NO_CHARGES


@<TRIPOS>ATOM
      1 C1          64.5386 -10.9709  12.9927 C.3            1 RES1               0.0000
      2 C2          63.9397 -12.3405  13.3727 C.ar           1 RES1               0.0000
      3 C3          64.3838 -10.8404  11.4803 C.2            1 RES1               0.0000
      4 C4          63.7611  -9.9293  13.7897 C.2            1 RES1               0.0000
      5 C5          66.0365 -10.8238  13.3476 C.3            1 RES1               0.0000
      6 C6          62.5649 -12.5511  13.3230 C.ar           1 RES1               0.0000
      7 C7          64.7479 -13.4017  13.7716 C.ar           1 RES1               0.0000
      8 N8          63.4278  -9.9867  11.0143 N.am           1 RES1               0.0000
      9 O9          65.0633 -11.5060  10.7086 O.2            1 RES1               0.0000
     10 N10         62.9823  -9.0402  13.0965 N.am           1 RES1               0.0000
     11 O11         63.8029  -9.8811  15.0129 O.2            1 RES1               0.0000
     12 C12         66.5789  -9.4174  13.1474 C.3            1 RES1               0.0000
     13 C13         62.0182 -13.7790  13.6571 C.ar           1 RES1               0.0000
     14 C14         64.1991 -14.6287  14.1056 C.ar           1 RES1               0.0000
     15 C15         62.7564  -9.0411  11.7469 C.2            1 RES1               0.0000
     16 C16         62.8347 -14.8187  14.0481 C.ar           1 RES1               0.0000
     17 O17         61.9992  -8.2424  11.2030 O.2            1 RES1               0.0000
     18 H18         66.1809 -11.1119  14.3962 H              1 RES1               0.0000
     19 H19         66.6164 -11.5175  12.7264 H              1 RES1               0.0000
     20 H20         61.9064 -11.7440  13.0200 H              1 RES1               0.0000
     21 H21         65.8239 -13.2749  13.8252 H              1 RES1               0.0000
     22 H22         63.1901 -10.0580  10.0301 H              1 RES1               0.0000
     23 H23         62.5291  -8.3098  13.6364 H              1 RES1               0.0000
     24 H24         67.6334  -9.3695  13.4108 H              1 RES1               0.0000
     25 H25         66.4744  -9.1078  12.1096 H              1 RES1               0.0000
     26 H26         66.0415  -8.7046  13.7694 H              1 RES1               0.0000
     27 H27         60.9437 -13.9229  13.6116 H              1 RES1               0.0000
     28 H28         64.8455 -15.4440  14.4134 H              1 RES1               0.0000
     29 H29         62.4062 -15.7806  14.3095 H              1 RES1               0.0000
@<TRIPOS>BOND
    1    1    2 1     
    2    1    3 1     
    3    1    4 1     
    4    1    5 1     
    5    2    6 ar    
    6    2    7 ar    
    7    3    8 1     
    8    3    9 2     
    9    4   10 1     
   10    4   11 2     
   11    5   12 1     
   12    5   18 1     
   13    5   19 1     
   14    6   13 ar    
   15    6   20 1     
   16    7   14 ar    
   17    7   21 1     
   18    8   15 1     
   19    8   22 1     
   20   10   15 1     
   21   10   23 1     
   22   12   24 1     
   23   12   25 1     
   24   12   26 1     
   25   13   16 ar    
   26   13   27 1     
   27   14   16 ar    
   28   14   28 1     
   29   15   17 2     
   30   16   29 1     
@<TRIPOS>SUBSTRUCTURE
      1 RES1           1
@<TRIPOS>SET
DONOR_HYDROGENS      STATIC     ATOMS    <user>   **** ""
2 22 23
ATOM$RED        STATIC     ATOMS    COLORGROUP SYSTEM
2 22 23
@<TRIPOS>COMMENT
> <Gold.Version>
2022.3.0

> <Gold.Id.Protein>
unknown|4g3y_cavity_clean|pdb

> <Gold.Protein.RotatedTorsions>
[ 8140 8133 8131 8128 ] final  -88.78 input   60.03 | X-H torsion
[ 8349 8342 8340 8337 ] final  144.39 input   60.00 | X-H torsion
[ 8379 8374 8373 8370 ] final  -41.07 input   60.00 | X-H torsion
[ 5333 5330 5329 5326 ] final  170.27 input   60.01 | X-H torsion
[ 8399 8388 8387 8386 ] final  -98.09 input   60.01 | X-H torsion
[ 5404 5399 5398 5395 ] final -149.94 input   59.99 | X-H torsion
[ 5434 5429 5428 5425 ] final  -77.93 input   59.99 | X-H torsion
[ 7810 7801 7800 7798 ] final   11.44 input   60.01 | X-H torsion

> <Gold.Protein.ActiveResidues>
 LEU148  LYS150  PHE173  PRO174  ALA175  VAL176  GLN178  SER179  SER184  LEU185 
 SER186  TYR140  ARG142  VAL163  THR164  GLU165  GLN166  ASP167  LEU179  THR180 
 LEU181  SER182  LYS183 

> <Gold.Protein.RotatedAtoms>
   63.8781   -9.1256    8.2499 H   0  0  0  0  0  0  0  0  0  0  0  0  # atno 5333 bound_to 5330
   59.5740   -9.5504   18.9915 H   0  0  0  0  0  0  0  0  0  0  0  0  # atno 5404 bound_to 5399
   58.4359   -7.2891   24.4754 H   0  0  0  0  0  0  0  0  0  0  0  0  # atno 5434 bound_to 5429
   45.0199   14.1898   21.1489 H   0  0  0  0  0  0  0  0  0  0  0  0  # atno 7810 bound_to 7801
   50.2559    2.7839   23.6516 H   0  0  0  0  0  0  0  0  0  0  0  0  # atno 8140 bound_to 8133
   63.9689   -7.8483   16.9843 H   0  0  0  0  0  0  0  0  0  0  0  0  # atno 8349 bound_to 8342
   74.3540  -10.1309   15.6938 H   0  0  0  0  0  0  0  0  0  0  0  0  # atno 8379 bound_to 8374
   74.8402  -17.4616   24.6412 H   0  0  0  0  0  0  0  0  0  0  0  0  # atno 8399 bound_to 8388
   74.9960  -18.1038   23.1212 H   0  0  0  0  0  0  0  0  0  0  0  0  # atno 8400 bound_to 8388
   76.3395  -17.8716   24.0655 H   0  0  0  0  0  0  0  0  0  0  0  0  # atno 8401 bound_to 8388
   48.8062    2.7706   24.3908 LP  0  0  0  0  0  0  0  0  0  0  0  0  # atno 8830 bound_to 8133
   48.9395    3.3184   22.8582 LP  0  0  0  0  0  0  0  0  0  0  0  0  # atno 8831 bound_to 8133
   64.7946   -7.1081   18.1757 LP  0  0  0  0  0  0  0  0  0  0  0  0  # atno 8862 bound_to 8342
   64.8476   -8.7337   18.0298 LP  0  0  0  0  0  0  0  0  0  0  0  0  # atno 8863 bound_to 8342
   75.0309  -11.0330   14.5203 LP  0  0  0  0  0  0  0  0  0  0  0  0  # atno 8874 bound_to 8374
   75.2284  -11.4459   16.0878 LP  0  0  0  0  0  0  0  0  0  0  0  0  # atno 8875 bound_to 8374
   63.1051  -10.3363    9.0152 LP  0  0  0  0  0  0  0  0  0  0  0  0  # atno 8878 bound_to 5330
   62.7260   -8.7830    9.3474 LP  0  0  0  0  0  0  0  0  0  0  0  0  # atno 8879 bound_to 5330
   59.3834  -11.1402   18.7028 LP  0  0  0  0  0  0  0  0  0  0  0  0  # atno 8884 bound_to 5399
   58.3304  -10.3508   19.6697 LP  0  0  0  0  0  0  0  0  0  0  0  0  # atno 8885 bound_to 5399
   58.6508   -5.8556   23.7360 LP  0  0  0  0  0  0  0  0  0  0  0  0  # atno 8890 bound_to 5429
   57.8795   -7.0693   22.9622 LP  0  0  0  0  0  0  0  0  0  0  0  0  # atno 8891 bound_to 5429
   46.1067   15.3334   20.7513 LP  0  0  0  0  0  0  0  0  0  0  0  0  # atno 8894 bound_to 7801
   44.9857   15.6324   21.9004 LP  0  0  0  0  0  0  0  0  0  0  0  0  # atno 8895 bound_to 7801

> <Gold.Score>
     Fitness  S(hb_ext) S(vdw_ext)  S(hb_int)    S(int)      intcor
     28.09       1.55      19.34       0.00      -0.04      -0.76

> <Gold.Goldscore.Fitness>
28.0947

> <Gold.Goldscore.Internal.Vdw>
-0.3367

> <Gold.Goldscore.Internal.Torsion>
-0.4617

> <Gold.Goldscore.External.Vdw>
19.3382

> <Gold.Goldscore.Internal.HBond>
0.0000

> <Gold.Goldscore.External.HBond>
1.5472

> <Gold.Goldscore.Internal.Correction>
-0.7558

> <Gold.Goldscore.Hbonds>
donor molecule, donor type, donor heavy atom, donor atom, acceptor molecule, acceptor atom, score
      P1  H  4861  4874       L1    11  0.02
      P1  H  5325  5334       L1    17  0.28
      L1  H     8    22       P1  5330  0.43

> <Gold.Goldscore.Internal.Vdw.Weighted>
-0.3367

> <Gold.Goldscore.Internal.Torsion.Weighted>
-0.4617

> <Gold.Goldscore.External.Vdw.Weighted>
26.5901

> <Gold.Goldscore.Internal.HBond.Weighted>
0.0000

> <Gold.Goldscore.External.HBond.Weighted>
1.5472

> <Gold.Goldscore.Internal.Correction.Weighted>
-0.7558

> <Gold.Rescore>
     Score     S(PLP)   S(hbond)     S(cho)   S(metal)  DE(clash)   DE(tors)     intcor
     21.61     -14.42       2.68       0.00       0.00       0.00       0.42       ----

> <Gold.PLP.Fitness>
21.6076

> <Gold.PLP.PLP>
-14.4184

> <Gold.PLP.part.hbond>
-4.0000

> <Gold.PLP.part.metal>
0.0000

> <Gold.PLP.part.buried>
1.4934

> <Gold.PLP.part.nonpolar>
-10.6858

> <Gold.PLP.part.repulsive>
0.2724

> <Gold.PLP.ligand.clash>
0.0000

> <Gold.PLP.ligand.torsion>
0.4248

> <Gold.PLP.Chemscore.Hbond>
2.6797

> <Gold.PLP.Chemscore.CHOScore>
0.0000

> <Gold.PLP.Chemscore.Metal>
0.0000

> <Gold.Chemscore.Hbonds>
donor molecule, donor type, donor heavy atom, donor atom, acceptor molecule, acceptor atom, score
      L1  H     8    22       P1  5330  0.88
      P1  H  4861  4874       L1    11  0.09
      P1  H  5325  5334       L1    17  1.00

> <Gold.PLP.Chemscore.Internal.Correction>
   9.000000E+99

