#       Name:                CT1002167954
#       Creating user name   hitesit
#       Creation time:       Sun Apr 16 02:21:42 2023


#       File generated by GOLD software.
#

@<TRIPOS>MOLECULE
CT1002167954|ligand_prepared|mol2|1|dock7
    29    30     1
SMALL
NO_CHARGES


@<TRIPOS>ATOM
      1 C1          63.8832  -6.3539  13.7017 C.3            1 RES1               0.0000
      2 C2          65.1598  -7.1472  13.3556 C.ar           1 RES1               0.0000
      3 C3          62.7207  -7.3331  13.5674 C.2            1 RES1               0.0000
      4 C4          64.0844  -5.8170  15.1145 C.2            1 RES1               0.0000
      5 C5          63.6224  -5.1506  12.7660 C.3            1 RES1               0.0000
      6 C6          65.1309  -8.5362  13.2749 C.ar           1 RES1               0.0000
      7 C7          66.3710  -6.5049  13.1122 C.ar           1 RES1               0.0000
      8 N8          62.1427  -7.7888  14.7155 N.am           1 RES1               0.0000
      9 O9          62.3428  -7.7299  12.4720 O.2            1 RES1               0.0000
     10 N10         63.2636  -6.2906  16.1043 N.am           1 RES1               0.0000
     11 O11         64.9573  -5.0006  15.3826 O.2            1 RES1               0.0000
     12 C12         63.8572  -5.4556  11.2949 C.3            1 RES1               0.0000
     13 C13         66.2708  -9.2570  12.9595 C.ar           1 RES1               0.0000
     14 C14         67.5098  -7.2277  12.7971 C.ar           1 RES1               0.0000
     15 C15         62.3220  -7.2750  15.9746 C.2            1 RES1               0.0000
     16 C16         67.4607  -8.6033  12.7199 C.ar           1 RES1               0.0000
     17 O17         61.6604  -7.6858  16.9236 O.2            1 RES1               0.0000
     18 H18         62.5846  -4.8200  12.8968 H              1 RES1               0.0000
     19 H19         64.2780  -4.3230  13.0639 H              1 RES1               0.0000
     20 H20         64.2041  -9.0681  13.4626 H              1 RES1               0.0000
     21 H21         66.4334  -5.4235  13.1683 H              1 RES1               0.0000
     22 H22         61.5195  -8.5855  14.6299 H              1 RES1               0.0000
     23 H23         63.3636  -5.8703  17.0228 H              1 RES1               0.0000
     24 H24         63.6601  -4.5780  10.6828 H              1 RES1               0.0000
     25 H25         64.8868  -5.7634  11.1243 H              1 RES1               0.0000
     26 H26         63.2035  -6.2575  10.9582 H              1 RES1               0.0000
     27 H27         66.2272 -10.3395  12.9013 H              1 RES1               0.0000
     28 H28         68.4443  -6.7091  12.6099 H              1 RES1               0.0000
     29 H29         68.3534  -9.1682  12.4724 H              1 RES1               0.0000
@<TRIPOS>BOND
    1    1    2 1     
    2    1    3 1     
    3    1    4 1     
    4    1    5 1     
    5    2    6 ar    
    6    2    7 ar    
    7    3    8 1     
    8    3    9 2     
    9    4   10 1     
   10    4   11 2     
   11    5   12 1     
   12    5   18 1     
   13    5   19 1     
   14    6   13 ar    
   15    6   20 1     
   16    7   14 ar    
   17    7   21 1     
   18    8   15 1     
   19    8   22 1     
   20   10   15 1     
   21   10   23 1     
   22   12   24 1     
   23   12   25 1     
   24   12   26 1     
   25   13   16 ar    
   26   13   27 1     
   27   14   16 ar    
   28   14   28 1     
   29   15   17 2     
   30   16   29 1     
@<TRIPOS>SUBSTRUCTURE
      1 RES1           1
@<TRIPOS>SET
DONOR_HYDROGENS      STATIC     ATOMS    <user>   **** ""
2 22 23
ATOM$RED        STATIC     ATOMS    COLORGROUP SYSTEM
2 22 23
@<TRIPOS>COMMENT
> <Gold.Version>
2022.3.0

> <Gold.Id.Protein>
unknown|4g3y_cavity_clean|pdb

> <Gold.Protein.RotatedTorsions>
[ 8140 8133 8131 8128 ] final  -90.55 input   60.03 | X-H torsion
[ 8349 8342 8340 8337 ] final -173.59 input   60.00 | X-H torsion
[ 8379 8374 8373 8370 ] final   68.97 input   60.00 | X-H torsion
[ 5333 5330 5329 5326 ] final  -52.62 input   60.01 | X-H torsion
[ 8399 8388 8387 8386 ] final  108.40 input   60.01 | X-H torsion
[ 5404 5399 5398 5395 ] final -144.40 input   59.99 | X-H torsion
[ 5434 5429 5428 5425 ] final    8.53 input   59.99 | X-H torsion
[ 7810 7801 7800 7798 ] final    3.38 input   60.01 | X-H torsion

> <Gold.Protein.ActiveResidues>
 LEU148  LYS150  PHE173  PRO174  ALA175  VAL176  GLN178  SER179  SER184  LEU185 
 SER186  TYR140  ARG142  VAL163  THR164  GLU165  GLN166  ASP167  LEU179  THR180 
 LEU181  SER182  LYS183 

> <Gold.Protein.RotatedAtoms>
   62.6193   -9.0197    9.4514 H   0  0  0  0  0  0  0  0  0  0  0  0  # atno 5333 bound_to 5330
   59.5134   -9.5104   19.0457 H   0  0  0  0  0  0  0  0  0  0  0  0  # atno 5404 bound_to 5399
   57.8872   -7.4674   23.3305 H   0  0  0  0  0  0  0  0  0  0  0  0  # atno 5434 bound_to 5429
   45.1135   14.1742   21.0577 H   0  0  0  0  0  0  0  0  0  0  0  0  # atno 7810 bound_to 7801
   50.2531    2.7743   23.6787 H   0  0  0  0  0  0  0  0  0  0  0  0  # atno 8140 bound_to 8133
   64.1353   -8.4847   17.1193 H   0  0  0  0  0  0  0  0  0  0  0  0  # atno 8349 bound_to 8342
   75.1519  -11.3443   16.1902 H   0  0  0  0  0  0  0  0  0  0  0  0  # atno 8379 bound_to 8374
   76.2315  -18.0660   23.5603 H   0  0  0  0  0  0  0  0  0  0  0  0  # atno 8399 bound_to 8388
   75.3600  -17.4466   24.8268 H   0  0  0  0  0  0  0  0  0  0  0  0  # atno 8400 bound_to 8388
   74.5844  -17.9244   23.4410 H   0  0  0  0  0  0  0  0  0  0  0  0  # atno 8401 bound_to 8388
   48.7830    2.7801   24.3763 LP  0  0  0  0  0  0  0  0  0  0  0  0  # atno 8830 bound_to 8133
   48.9656    3.3185   22.8455 LP  0  0  0  0  0  0  0  0  0  0  0  0  # atno 8831 bound_to 8133
   64.3862   -6.9686   17.6553 LP  0  0  0  0  0  0  0  0  0  0  0  0  # atno 8862 bound_to 8342
   65.0884   -8.2325   18.4142 LP  0  0  0  0  0  0  0  0  0  0  0  0  # atno 8863 bound_to 8342
   74.3401  -10.0949   15.5351 LP  0  0  0  0  0  0  0  0  0  0  0  0  # atno 8874 bound_to 8374
   75.1159  -11.1624   14.5732 LP  0  0  0  0  0  0  0  0  0  0  0  0  # atno 8875 bound_to 8374
   63.7908   -8.8726    8.3311 LP  0  0  0  0  0  0  0  0  0  0  0  0  # atno 8878 bound_to 5330
   63.3077  -10.3533    8.8218 LP  0  0  0  0  0  0  0  0  0  0  0  0  # atno 8879 bound_to 5330
   59.4517  -11.0915   18.6670 LP  0  0  0  0  0  0  0  0  0  0  0  0  # atno 8884 bound_to 5399
   58.3231  -10.4398   19.6509 LP  0  0  0  0  0  0  0  0  0  0  0  0  # atno 8885 bound_to 5399
   58.6652   -6.8140   24.6015 LP  0  0  0  0  0  0  0  0  0  0  0  0  # atno 8890 bound_to 5429
   58.4179   -5.9313   23.2501 LP  0  0  0  0  0  0  0  0  0  0  0  0  # atno 8891 bound_to 5429
   46.0970   15.4479   20.8175 LP  0  0  0  0  0  0  0  0  0  0  0  0  # atno 8894 bound_to 7801
   44.9011   15.5336   21.9261 LP  0  0  0  0  0  0  0  0  0  0  0  0  # atno 8895 bound_to 7801

> <Gold.Score>
     Fitness  S(hb_ext) S(vdw_ext)  S(hb_int)    S(int)      intcor
     30.48       0.38      24.47       0.00      -3.55      -0.76

> <Gold.Goldscore.Fitness>
30.4822

> <Gold.Goldscore.Internal.Vdw>
-3.5039

> <Gold.Goldscore.Internal.Torsion>
-0.8040

> <Gold.Goldscore.External.Vdw>
24.4737

> <Gold.Goldscore.Internal.HBond>
0.0000

> <Gold.Goldscore.External.HBond>
0.3830

> <Gold.Goldscore.Internal.Correction>
-0.7558

> <Gold.Goldscore.Hbonds>
donor molecule, donor type, donor heavy atom, donor atom, acceptor molecule, acceptor atom, score
      P1  H  8336  8343       L1    11  0.01
      P1  H  5325  5334       L1     9  0.03
      P1  H  5330  5333       L1     9  0.03
      L1  H     8    22       P1  5316  0.13

> <Gold.Goldscore.Internal.Vdw.Weighted>
-3.5039

> <Gold.Goldscore.Internal.Torsion.Weighted>
-0.8040

> <Gold.Goldscore.External.Vdw.Weighted>
33.6513

> <Gold.Goldscore.Internal.HBond.Weighted>
0.0000

> <Gold.Goldscore.External.HBond.Weighted>
0.3830

> <Gold.Goldscore.Internal.Correction.Weighted>
-0.7558

> <Gold.Rescore>
     Score     S(PLP)   S(hbond)     S(cho)   S(metal)  DE(clash)   DE(tors)     intcor
     29.69     -27.03       1.72       0.00       0.00       0.99       0.76       ----

> <Gold.PLP.Fitness>
29.6857

> <Gold.PLP.PLP>
-27.0285

> <Gold.PLP.part.hbond>
-3.4509

> <Gold.PLP.part.metal>
0.0000

> <Gold.PLP.part.buried>
-3.5082

> <Gold.PLP.part.nonpolar>
-22.9392

> <Gold.PLP.part.repulsive>
3.6217

> <Gold.PLP.ligand.clash>
0.9855

> <Gold.PLP.ligand.torsion>
0.7644

> <Gold.PLP.Chemscore.Hbond>
1.7238

> <Gold.PLP.Chemscore.CHOScore>
0.0000

> <Gold.PLP.Chemscore.Metal>
0.0000

> <Gold.Chemscore.Hbonds>
donor molecule, donor type, donor heavy atom, donor atom, acceptor molecule, acceptor atom, score
      P1  H  8336  8343       L1    11  0.59

> <Gold.PLP.Chemscore.Internal.Correction>
   9.000000E+99

