#       Name:                CT1002167954
#       Creating user name   hitesit
#       Creation time:       Sun Apr 16 02:21:44 2023


#       File generated by GOLD software.
#

@<TRIPOS>MOLECULE
CT1002167954|ligand_prepared|mol2|1|dock8
    29    30     1
SMALL
NO_CHARGES


@<TRIPOS>ATOM
      1 C1          65.7770  -9.2780  12.3191 C.3            1 RES1               0.0000
      2 C2          64.8230 -10.2072  13.0971 C.ar           1 RES1               0.0000
      3 C3          64.9714  -8.0291  11.9736 C.2            1 RES1               0.0000
      4 C4          66.9641  -9.0178  13.2398 C.2            1 RES1               0.0000
      5 C5          66.3162  -9.8934  11.0067 C.3            1 RES1               0.0000
      6 C6          64.0385  -9.7102  14.1335 C.ar           1 RES1               0.0000
      7 C7          64.7149 -11.5607  12.7888 C.ar           1 RES1               0.0000
      8 N8          65.2421  -6.8894  12.6721 N.am           1 RES1               0.0000
      9 O9          64.0850  -8.0539  11.1287 O.2            1 RES1               0.0000
     10 N10         67.1549  -7.7397  13.6958 N.am           1 RES1               0.0000
     11 O11         67.7263  -9.9112  13.5879 O.2            1 RES1               0.0000
     12 C12         67.0796  -8.9080  10.1359 C.3            1 RES1               0.0000
     13 C13         63.1748 -10.5355  14.8344 C.ar           1 RES1               0.0000
     14 C14         63.8507 -12.3844  13.4912 C.ar           1 RES1               0.0000
     15 C15         66.3299  -6.6699  13.4783 C.2            1 RES1               0.0000
     16 C16         63.0800 -11.8729  14.5135 C.ar           1 RES1               0.0000
     17 O17         66.5393  -5.5636  13.9675 O.2            1 RES1               0.0000
     18 H18         66.9787 -10.7315  11.2558 H              1 RES1               0.0000
     19 H19         65.4721 -10.2928  10.4311 H              1 RES1               0.0000
     20 H20         64.1014  -8.6608  14.4019 H              1 RES1               0.0000
     21 H21         65.3123 -11.9852  11.9891 H              1 RES1               0.0000
     22 H22         64.5738  -6.1302  12.5871 H              1 RES1               0.0000
     23 H23         67.9892  -7.5700  14.2484 H              1 RES1               0.0000
     24 H24         67.4358  -9.3908   9.2283 H              1 RES1               0.0000
     25 H25         66.4432  -8.0736   9.8485 H              1 RES1               0.0000
     26 H26         67.9409  -8.5097  10.6682 H              1 RES1               0.0000
     27 H27         62.5715 -10.1283  15.6390 H              1 RES1               0.0000
     28 H28         63.7798 -13.4365  13.2356 H              1 RES1               0.0000
     29 H29         62.4031 -12.5192  15.0624 H              1 RES1               0.0000
@<TRIPOS>BOND
    1    1    2 1     
    2    1    3 1     
    3    1    4 1     
    4    1    5 1     
    5    2    6 ar    
    6    2    7 ar    
    7    3    8 1     
    8    3    9 2     
    9    4   10 1     
   10    4   11 2     
   11    5   12 1     
   12    5   18 1     
   13    5   19 1     
   14    6   13 ar    
   15    6   20 1     
   16    7   14 ar    
   17    7   21 1     
   18    8   15 1     
   19    8   22 1     
   20   10   15 1     
   21   10   23 1     
   22   12   24 1     
   23   12   25 1     
   24   12   26 1     
   25   13   16 ar    
   26   13   27 1     
   27   14   16 ar    
   28   14   28 1     
   29   15   17 2     
   30   16   29 1     
@<TRIPOS>SUBSTRUCTURE
      1 RES1           1
@<TRIPOS>SET
DONOR_HYDROGENS      STATIC     ATOMS    <user>   **** ""
2 22 23
ATOM$RED        STATIC     ATOMS    COLORGROUP SYSTEM
2 22 23
@<TRIPOS>COMMENT
> <Gold.Version>
2022.3.0

> <Gold.Id.Protein>
unknown|4g3y_cavity_clean|pdb

> <Gold.Protein.RotatedTorsions>
[ 8140 8133 8131 8128 ] final -178.46 input   60.03 | X-H torsion
[ 8349 8342 8340 8337 ] final  173.57 input   60.00 | X-H torsion
[ 8379 8374 8373 8370 ] final -106.07 input   60.00 | X-H torsion
[ 5333 5330 5329 5326 ] final   64.49 input   60.01 | X-H torsion
[ 8399 8388 8387 8386 ] final   82.91 input   60.01 | X-H torsion
[ 5404 5399 5398 5395 ] final  -51.68 input   59.99 | X-H torsion
[ 5434 5429 5428 5425 ] final  131.68 input   59.99 | X-H torsion
[ 7810 7801 7800 7798 ] final -145.75 input   60.01 | X-H torsion

> <Gold.Protein.ActiveResidues>
 LEU148  LYS150  PHE173  PRO174  ALA175  VAL176  GLN178  SER179  SER184  LEU185 
 SER186  TYR140  ARG142  VAL163  THR164  GLU165  GLN166  ASP167  LEU179  THR180 
 LEU181  SER182  LYS183 

> <Gold.Protein.RotatedAtoms>
   63.2719  -10.3501    8.8535 H   0  0  0  0  0  0  0  0  0  0  0  0  # atno 5333 bound_to 5330
   58.4301  -10.0114   19.6864 H   0  0  0  0  0  0  0  0  0  0  0  0  # atno 5404 bound_to 5399
   58.4401   -5.9170   23.2951 H   0  0  0  0  0  0  0  0  0  0  0  0  # atno 5434 bound_to 5429
   45.9439   15.7748   21.1223 H   0  0  0  0  0  0  0  0  0  0  0  0  # atno 7810 bound_to 7801
   49.2644    2.6405   24.5118 H   0  0  0  0  0  0  0  0  0  0  0  0  # atno 8140 bound_to 8133
   64.0559   -8.3090   17.0378 H   0  0  0  0  0  0  0  0  0  0  0  0  # atno 8349 bound_to 8342
   74.5487  -10.3424   14.7293 H   0  0  0  0  0  0  0  0  0  0  0  0  # atno 8379 bound_to 8374
   75.9573  -18.1600   23.2535 H   0  0  0  0  0  0  0  0  0  0  0  0  # atno 8399 bound_to 8388
   75.7725  -17.5176   24.7702 H   0  0  0  0  0  0  0  0  0  0  0  0  # atno 8400 bound_to 8388
   74.4462  -17.7594   23.8043 H   0  0  0  0  0  0  0  0  0  0  0  0  # atno 8401 bound_to 8388
   48.5692    3.2648   23.1795 LP  0  0  0  0  0  0  0  0  0  0  0  0  # atno 8830 bound_to 8133
   50.1749    2.9686   23.2035 LP  0  0  0  0  0  0  0  0  0  0  0  0  # atno 8831 bound_to 8133
   64.5127   -6.9589   17.8235 LP  0  0  0  0  0  0  0  0  0  0  0  0  # atno 8862 bound_to 8342
   65.0419   -8.4191   18.3280 LP  0  0  0  0  0  0  0  0  0  0  0  0  # atno 8863 bound_to 8342
   75.3968  -11.6289   15.2535 LP  0  0  0  0  0  0  0  0  0  0  0  0  # atno 8874 bound_to 8374
   74.6665  -10.6371   16.3257 LP  0  0  0  0  0  0  0  0  0  0  0  0  # atno 8875 bound_to 8374
   62.6313   -8.9743    9.4416 LP  0  0  0  0  0  0  0  0  0  0  0  0  # atno 8878 bound_to 5330
   63.8102   -8.9122    8.3133 LP  0  0  0  0  0  0  0  0  0  0  0  0  # atno 8879 bound_to 5330
   59.7699   -9.7707   18.7953 LP  0  0  0  0  0  0  0  0  0  0  0  0  # atno 8884 bound_to 5399
   59.0961  -11.2559   18.8773 LP  0  0  0  0  0  0  0  0  0  0  0  0  # atno 8885 bound_to 5399
   57.8784   -7.4441   23.2847 LP  0  0  0  0  0  0  0  0  0  0  0  0  # atno 8890 bound_to 5429
   58.6477   -6.8631   24.6027 LP  0  0  0  0  0  0  0  0  0  0  0  0  # atno 8891 bound_to 5429
   44.6829   15.1131   21.9091 LP  0  0  0  0  0  0  0  0  0  0  0  0  # atno 8894 bound_to 7801
   45.4788   14.2562   20.7694 LP  0  0  0  0  0  0  0  0  0  0  0  0  # atno 8895 bound_to 7801

> <Gold.Score>
     Fitness  S(hb_ext) S(vdw_ext)  S(hb_int)    S(int)      intcor
     20.40       0.29      14.71       0.00      -0.12      -0.76

> <Gold.Goldscore.Fitness>
20.3997

> <Gold.Goldscore.Internal.Vdw>
-0.3754

> <Gold.Goldscore.Internal.Torsion>
-0.4967

> <Gold.Goldscore.External.Vdw>
14.7108

> <Gold.Goldscore.Internal.HBond>
0.0000

> <Gold.Goldscore.External.HBond>
0.2885

> <Gold.Goldscore.Internal.Correction>
-0.7558

> <Gold.Goldscore.Hbonds>
donor molecule, donor type, donor heavy atom, donor atom, acceptor molecule, acceptor atom, score
      L1  H    10    23       P1  8339  0.14

> <Gold.Goldscore.Internal.Vdw.Weighted>
-0.3754

> <Gold.Goldscore.Internal.Torsion.Weighted>
-0.4967

> <Gold.Goldscore.External.Vdw.Weighted>
20.2274

> <Gold.Goldscore.Internal.HBond.Weighted>
0.0000

> <Gold.Goldscore.External.HBond.Weighted>
0.2885

> <Gold.Goldscore.Internal.Correction.Weighted>
-0.7558

> <Gold.Rescore>
     Score     S(PLP)   S(hbond)     S(cho)   S(metal)  DE(clash)   DE(tors)     intcor
     17.26     -14.84       0.99       0.00       0.00       0.00       0.28       ----

> <Gold.PLP.Fitness>
17.2585

> <Gold.PLP.PLP>
-14.8433

> <Gold.PLP.part.hbond>
-2.0000

> <Gold.PLP.part.metal>
0.0000

> <Gold.PLP.part.buried>
-2.4683

> <Gold.PLP.part.nonpolar>
-11.3713

> <Gold.PLP.part.repulsive>
0.3060

> <Gold.PLP.ligand.clash>
0.0000

> <Gold.PLP.ligand.torsion>
0.2793

> <Gold.PLP.Chemscore.Hbond>
0.9913

> <Gold.PLP.Chemscore.CHOScore>
0.0000

> <Gold.PLP.Chemscore.Metal>
0.0000

> <Gold.Chemscore.Hbonds>
donor molecule, donor type, donor heavy atom, donor atom, acceptor molecule, acceptor atom, score
      L1  H    10    23       P1  8339  0.91

> <Gold.PLP.Chemscore.Internal.Correction>
   9.000000E+99

