#       Name:                CT1002167954
#       Creating user name   hitesit
#       Creation time:       Sun Apr 16 02:21:45 2023


#       File generated by GOLD software.
#

@<TRIPOS>MOLECULE
CT1002167954|ligand_prepared|mol2|1|dock9
    29    30     1
SMALL
NO_CHARGES


@<TRIPOS>ATOM
      1 C1          63.9847  -6.8083  12.8031 C.3            1 RES1               0.0000
      2 C2          63.8913  -5.7066  11.7277 C.ar           1 RES1               0.0000
      3 C3          63.9441  -8.1391  12.0577 C.2            1 RES1               0.0000
      4 C4          65.2852  -6.5578  13.5585 C.2            1 RES1               0.0000
      5 C5          62.8253  -6.7827  13.8261 C.3            1 RES1               0.0000
      6 C6          64.0299  -6.0195  10.3788 C.ar           1 RES1               0.0000
      7 C7          63.6646  -4.3758  12.0685 C.ar           1 RES1               0.0000
      8 N8          65.1083  -8.8421  11.9558 N.am           1 RES1               0.0000
      9 O9          62.9150  -8.5465  11.5331 O.2            1 RES1               0.0000
     10 N10         66.2788  -7.4958  13.4549 N.am           1 RES1               0.0000
     11 O11         65.4646  -5.5487  14.2291 O.2            1 RES1               0.0000
     12 C12         62.8127  -7.9761  14.7684 C.3            1 RES1               0.0000
     13 C13         63.9421  -5.0380   9.4055 C.ar           1 RES1               0.0000
     14 C14         63.5774  -3.3958  11.0936 C.ar           1 RES1               0.0000
     15 C15         66.2608  -8.6116  12.6632 C.2            1 RES1               0.0000
     16 C16         63.7154  -3.7257   9.7621 C.ar           1 RES1               0.0000
     17 O17         67.2151  -9.3795  12.5814 O.2            1 RES1               0.0000
     18 H18         62.8995  -5.8640  14.4209 H              1 RES1               0.0000
     19 H19         61.8739  -6.7533  13.2809 H              1 RES1               0.0000
     20 H20         64.2112  -7.0463  10.0793 H              1 RES1               0.0000
     21 H21         63.5539  -4.0928  13.1098 H              1 RES1               0.0000
     22 H22         65.1234  -9.6101  11.2923 H              1 RES1               0.0000
     23 H23         67.1087  -7.3487  14.0206 H              1 RES1               0.0000
     24 H24         61.9797  -7.9087  15.4651 H              1 RES1               0.0000
     25 H25         62.7146  -8.9059  14.2119 H              1 RES1               0.0000
     26 H26         63.7341  -8.0219  15.3452 H              1 RES1               0.0000
     27 H27         64.0528  -5.3026   8.3591 H              1 RES1               0.0000
     28 H28         63.3995  -2.3642  11.3788 H              1 RES1               0.0000
     29 H29         63.6463  -2.9571   8.9994 H              1 RES1               0.0000
@<TRIPOS>BOND
    1    1    2 1     
    2    1    3 1     
    3    1    4 1     
    4    1    5 1     
    5    2    6 ar    
    6    2    7 ar    
    7    3    8 1     
    8    3    9 2     
    9    4   10 1     
   10    4   11 2     
   11    5   12 1     
   12    5   18 1     
   13    5   19 1     
   14    6   13 ar    
   15    6   20 1     
   16    7   14 ar    
   17    7   21 1     
   18    8   15 1     
   19    8   22 1     
   20   10   15 1     
   21   10   23 1     
   22   12   24 1     
   23   12   25 1     
   24   12   26 1     
   25   13   16 ar    
   26   13   27 1     
   27   14   16 ar    
   28   14   28 1     
   29   15   17 2     
   30   16   29 1     
@<TRIPOS>SUBSTRUCTURE
      1 RES1           1
@<TRIPOS>SET
DONOR_HYDROGENS      STATIC     ATOMS    <user>   **** ""
2 22 23
ATOM$RED        STATIC     ATOMS    COLORGROUP SYSTEM
2 22 23
@<TRIPOS>COMMENT
> <Gold.Version>
2022.3.0

> <Gold.Id.Protein>
unknown|4g3y_cavity_clean|pdb

> <Gold.Protein.RotatedTorsions>
[ 8140 8133 8131 8128 ] final -108.91 input   60.03 | X-H torsion
[ 8349 8342 8340 8337 ] final   -5.73 input   60.00 | X-H torsion
[ 8379 8374 8373 8370 ] final  137.21 input   60.00 | X-H torsion
[ 5333 5330 5329 5326 ] final  -12.34 input   60.01 | X-H torsion
[ 8399 8388 8387 8386 ] final   52.36 input   60.01 | X-H torsion
[ 5404 5399 5398 5395 ] final  156.06 input   59.99 | X-H torsion
[ 5434 5429 5428 5425 ] final -173.70 input   59.99 | X-H torsion
[ 7810 7801 7800 7798 ] final -131.49 input   60.01 | X-H torsion

> <Gold.Protein.ActiveResidues>
 LEU148  LYS150  PHE173  PRO174  ALA175  VAL176  GLN178  SER179  SER184  LEU185 
 SER186  TYR140  ARG142  VAL163  THR164  GLU165  GLN166  ASP167  LEU179  THR180 
 LEU181  SER182  LYS183 

> <Gold.Protein.RotatedAtoms>
   62.5867   -9.6622    9.4952 H   0  0  0  0  0  0  0  0  0  0  0  0  # atno 5333 bound_to 5330
   59.8652  -10.2437   18.5960 H   0  0  0  0  0  0  0  0  0  0  0  0  # atno 5404 bound_to 5399
   58.7496   -5.9915   24.0928 H   0  0  0  0  0  0  0  0  0  0  0  0  # atno 5434 bound_to 5429
   46.0387   15.6315   20.9659 H   0  0  0  0  0  0  0  0  0  0  0  0  # atno 7810 bound_to 7801
   50.1734    2.6863   23.9529 H   0  0  0  0  0  0  0  0  0  0  0  0  # atno 8140 bound_to 8133
   65.0140   -7.4738   18.4134 H   0  0  0  0  0  0  0  0  0  0  0  0  # atno 8349 bound_to 8342
   75.3871  -11.6137   15.2023 H   0  0  0  0  0  0  0  0  0  0  0  0  # atno 8379 bound_to 8374
   75.4898  -18.1828   23.0659 H   0  0  0  0  0  0  0  0  0  0  0  0  # atno 8399 bound_to 8388
   76.1632  -17.6763   24.4933 H   0  0  0  0  0  0  0  0  0  0  0  0  # atno 8400 bound_to 8388
   74.5230  -17.5779   24.2687 H   0  0  0  0  0  0  0  0  0  0  0  0  # atno 8401 bound_to 8388
   48.5756    2.8880   24.1867 LP  0  0  0  0  0  0  0  0  0  0  0  0  # atno 8830 bound_to 8133
   49.2532    3.2993   22.7590 LP  0  0  0  0  0  0  0  0  0  0  0  0  # atno 8831 bound_to 8133
   64.5646   -8.8351   17.6428 LP  0  0  0  0  0  0  0  0  0  0  0  0  # atno 8862 bound_to 8342
   64.0253   -7.3837   17.1238 LP  0  0  0  0  0  0  0  0  0  0  0  0  # atno 8863 bound_to 8342
   74.6948  -10.6801   16.3417 LP  0  0  0  0  0  0  0  0  0  0  0  0  # atno 8874 bound_to 8374
   74.5243  -10.3059   14.7613 LP  0  0  0  0  0  0  0  0  0  0  0  0  # atno 8875 bound_to 8374
   63.4018   -8.5022    8.6958 LP  0  0  0  0  0  0  0  0  0  0  0  0  # atno 8878 bound_to 5330
   63.7296  -10.0768    8.4130 LP  0  0  0  0  0  0  0  0  0  0  0  0  # atno 8879 bound_to 5330
   58.6824  -11.1890   19.1916 LP  0  0  0  0  0  0  0  0  0  0  0  0  # atno 8884 bound_to 5399
   58.7380   -9.6036   19.5793 LP  0  0  0  0  0  0  0  0  0  0  0  0  # atno 8885 bound_to 5399
   57.9689   -6.6997   22.8532 LP  0  0  0  0  0  0  0  0  0  0  0  0  # atno 8890 bound_to 5429
   58.2454   -7.5324   24.2305 LP  0  0  0  0  0  0  0  0  0  0  0  0  # atno 8891 bound_to 5429
   44.7706   15.3281   21.9391 LP  0  0  0  0  0  0  0  0  0  0  0  0  # atno 8894 bound_to 7801
   45.2957   14.1857   20.8971 LP  0  0  0  0  0  0  0  0  0  0  0  0  # atno 8895 bound_to 7801

> <Gold.Score>
     Fitness  S(hb_ext) S(vdw_ext)  S(hb_int)    S(int)      intcor
     27.90       1.49      20.66       0.00      -2.01      -0.76

> <Gold.Goldscore.Fitness>
27.8961

> <Gold.Goldscore.Internal.Vdw>
-2.2933

> <Gold.Goldscore.Internal.Torsion>
-0.4683

> <Gold.Goldscore.External.Vdw>
20.6629

> <Gold.Goldscore.Internal.HBond>
0.0000

> <Gold.Goldscore.External.HBond>
1.4904

> <Gold.Goldscore.Internal.Correction>
-0.7558

> <Gold.Goldscore.Hbonds>
donor molecule, donor type, donor heavy atom, donor atom, acceptor molecule, acceptor atom, score
      P1  H  5325  5334       L1     9  0.39
      L1  H    10    23       P1  8339  0.36

> <Gold.Goldscore.Internal.Vdw.Weighted>
-2.2933

> <Gold.Goldscore.Internal.Torsion.Weighted>
-0.4683

> <Gold.Goldscore.External.Vdw.Weighted>
28.4115

> <Gold.Goldscore.Internal.HBond.Weighted>
0.0000

> <Gold.Goldscore.External.HBond.Weighted>
1.4904

> <Gold.Goldscore.Internal.Correction.Weighted>
-0.7558

> <Gold.Rescore>
     Score     S(PLP)   S(hbond)     S(cho)   S(metal)  DE(clash)   DE(tors)     intcor
     28.62     -25.09       1.96       0.00       0.00       1.04       0.65       ----

> <Gold.PLP.Fitness>
28.6177

> <Gold.PLP.PLP>
-25.0875

> <Gold.PLP.part.hbond>
-3.0000

> <Gold.PLP.part.metal>
0.0000

> <Gold.PLP.part.buried>
-2.4738

> <Gold.PLP.part.nonpolar>
-20.0832

> <Gold.PLP.part.repulsive>
0.2511

> <Gold.PLP.ligand.clash>
1.0418

> <Gold.PLP.ligand.torsion>
0.6540

> <Gold.PLP.Chemscore.Hbond>
1.9600

> <Gold.PLP.Chemscore.CHOScore>
0.0000

> <Gold.PLP.Chemscore.Metal>
0.0000

> <Gold.Chemscore.Hbonds>
donor molecule, donor type, donor heavy atom, donor atom, acceptor molecule, acceptor atom, score
      L1  H    10    23       P1  8339  0.41
      P1  H  5330  5333       L1     9  0.20

> <Gold.PLP.Chemscore.Internal.Correction>
   9.000000E+99

