#       Name:                CT1002167954
#       Creating user name   hitesit
#       Creation time:       Sun Apr 16 02:21:36 2023


#       File generated by GOLD software.
#

@<TRIPOS>MOLECULE
CT1002167954|ligand_prepared|mol2|1|dock2
    29    30     1
SMALL
NO_CHARGES


@<TRIPOS>ATOM
      1 C1          63.2821  -6.7783  14.4216 C.3            1 RES1               0.0000
      2 C2          64.6011  -7.3979  13.9164 C.ar           1 RES1               0.0000
      3 C3          62.2200  -7.8660  14.2907 C.2            1 RES1               0.0000
      4 C4          63.5423  -6.3323  15.8562 C.2            1 RES1               0.0000
      5 C5          62.8222  -5.5429  13.6132 C.3            1 RES1               0.0000
      6 C6          65.6905  -6.5895  13.6058 C.ar           1 RES1               0.0000
      7 C7          64.7442  -8.7738  13.7586 C.ar           1 RES1               0.0000
      8 N8          61.7887  -8.4690  15.4354 N.am           1 RES1               0.0000
      9 O9          61.7963  -8.2170  13.1964 O.2            1 RES1               0.0000
     10 N10         62.8591  -6.9674  16.8600 N.am           1 RES1               0.0000
     11 O11         64.3451  -5.4480  16.1276 O.2            1 RES1               0.0000
     12 C12         62.9163  -5.7262  12.1066 C.3            1 RES1               0.0000
     13 C13         66.8808  -7.1369  13.1566 C.ar           1 RES1               0.0000
     14 C14         65.9354  -9.3192  13.3090 C.ar           1 RES1               0.0000
     15 C15         62.0170  -8.0363  16.7170 C.2            1 RES1               0.0000
     16 C16         67.0042  -8.5019  13.0083 C.ar           1 RES1               0.0000
     17 O17         61.4817  -8.5887  17.6738 O.2            1 RES1               0.0000
     18 H18         61.7819  -5.3156  13.8769 H              1 RES1               0.0000
     19 H19         63.4373  -4.6821  13.9032 H              1 RES1               0.0000
     20 H20         65.6112  -5.5129  13.7140 H              1 RES1               0.0000
     21 H21         63.9162  -9.4360  13.9880 H              1 RES1               0.0000
     22 H22         61.2463  -9.3203  15.3287 H              1 RES1               0.0000
     23 H23         62.9903  -6.6102  17.8010 H              1 RES1               0.0000
     24 H24         62.5818  -4.8305  11.5874 H              1 RES1               0.0000
     25 H25         63.9421  -5.9289  11.8060 H              1 RES1               0.0000
     26 H26         62.2965  -6.5587  11.7799 H              1 RES1               0.0000
     27 H27         67.7186  -6.4893  12.9201 H              1 RES1               0.0000
     28 H28         66.0278 -10.3940  13.1932 H              1 RES1               0.0000
     29 H29         67.9369  -8.9306  12.6568 H              1 RES1               0.0000
@<TRIPOS>BOND
    1    1    2 1     
    2    1    3 1     
    3    1    4 1     
    4    1    5 1     
    5    2    6 ar    
    6    2    7 ar    
    7    3    8 1     
    8    3    9 2     
    9    4   10 1     
   10    4   11 2     
   11    5   12 1     
   12    5   18 1     
   13    5   19 1     
   14    6   13 ar    
   15    6   20 1     
   16    7   14 ar    
   17    7   21 1     
   18    8   15 1     
   19    8   22 1     
   20   10   15 1     
   21   10   23 1     
   22   12   24 1     
   23   12   25 1     
   24   12   26 1     
   25   13   16 ar    
   26   13   27 1     
   27   14   16 ar    
   28   14   28 1     
   29   15   17 2     
   30   16   29 1     
@<TRIPOS>SUBSTRUCTURE
      1 RES1           1
@<TRIPOS>SET
DONOR_HYDROGENS      STATIC     ATOMS    <user>   **** ""
2 22 23
ATOM$RED        STATIC     ATOMS    COLORGROUP SYSTEM
2 22 23
@<TRIPOS>COMMENT
> <Gold.Version>
2022.3.0

> <Gold.Id.Protein>
unknown|4g3y_cavity_clean|pdb

> <Gold.Protein.RotatedTorsions>
[ 8140 8133 8131 8128 ] final  105.29 input   60.03 | X-H torsion
[ 8349 8342 8340 8337 ] final  -41.76 input   60.00 | X-H torsion
[ 8379 8374 8373 8370 ] final  132.77 input   60.00 | X-H torsion
[ 5333 5330 5329 5326 ] final  131.20 input   60.01 | X-H torsion
[ 8399 8388 8387 8386 ] final -114.67 input   60.01 | X-H torsion
[ 5404 5399 5398 5395 ] final  108.60 input   59.99 | X-H torsion
[ 5434 5429 5428 5425 ] final  130.69 input   59.99 | X-H torsion
[ 7810 7801 7800 7798 ] final  -81.16 input   60.01 | X-H torsion

> <Gold.Protein.ActiveResidues>
 LEU148  LYS150  PHE173  PRO174  ALA175  VAL176  GLN178  SER179  SER184  LEU185 
 SER186  TYR140  ARG142  VAL163  THR164  GLU165  GLN166  ASP167  LEU179  THR180 
 LEU181  SER182  LYS183 

> <Gold.Protein.RotatedAtoms>
   63.8718   -9.7516    8.2682 H   0  0  0  0  0  0  0  0  0  0  0  0  # atno 5333 bound_to 5330
   59.5926  -10.9460   18.6019 H   0  0  0  0  0  0  0  0  0  0  0  0  # atno 5404 bound_to 5399
   58.4324   -5.9229   23.2820 H   0  0  0  0  0  0  0  0  0  0  0  0  # atno 5434 bound_to 5429
   46.0289   14.9170   20.6154 H   0  0  0  0  0  0  0  0  0  0  0  0  # atno 7810 bound_to 7801
   48.4245    3.0456   23.8285 H   0  0  0  0  0  0  0  0  0  0  0  0  # atno 8140 bound_to 8133
   65.1047   -8.0442   18.4573 H   0  0  0  0  0  0  0  0  0  0  0  0  # atno 8349 bound_to 8342
   75.3931  -11.6281   15.2731 H   0  0  0  0  0  0  0  0  0  0  0  0  # atno 8379 bound_to 8374
   75.0843  -17.4380   24.7677 H   0  0  0  0  0  0  0  0  0  0  0  0  # atno 8399 bound_to 8388
   74.7655  -18.0241   23.2504 H   0  0  0  0  0  0  0  0  0  0  0  0  # atno 8400 bound_to 8388
   76.3259  -17.9748   23.8098 H   0  0  0  0  0  0  0  0  0  0  0  0  # atno 8401 bound_to 8388
   49.6643    3.2148   22.7882 LP  0  0  0  0  0  0  0  0  0  0  0  0  # atno 8830 bound_to 8133
   49.9254    2.6107   24.2827 LP  0  0  0  0  0  0  0  0  0  0  0  0  # atno 8831 bound_to 8133
   64.2226   -8.6259   17.2193 LP  0  0  0  0  0  0  0  0  0  0  0  0  # atno 8862 bound_to 8342
   64.2760   -7.0186   17.5031 LP  0  0  0  0  0  0  0  0  0  0  0  0  # atno 8863 bound_to 8342
   74.6566  -10.6220   16.3193 LP  0  0  0  0  0  0  0  0  0  0  0  0  # atno 8874 bound_to 8374
   74.5565  -10.3495   14.7123 LP  0  0  0  0  0  0  0  0  0  0  0  0  # atno 8875 bound_to 8374
   62.7136  -10.0061    9.3831 LP  0  0  0  0  0  0  0  0  0  0  0  0  # atno 8878 bound_to 5330
   63.1239   -8.4829    8.9611 LP  0  0  0  0  0  0  0  0  0  0  0  0  # atno 8879 bound_to 5330
   58.3343  -10.6435   19.5880 LP  0  0  0  0  0  0  0  0  0  0  0  0  # atno 8884 bound_to 5399
   59.3608   -9.4418   19.1770 LP  0  0  0  0  0  0  0  0  0  0  0  0  # atno 8885 bound_to 5399
   57.8805   -7.4536   23.2979 LP  0  0  0  0  0  0  0  0  0  0  0  0  # atno 8890 bound_to 5429
   58.6533   -6.8476   24.6026 LP  0  0  0  0  0  0  0  0  0  0  0  0  # atno 8891 bound_to 5429
   45.3187   15.8724   21.7243 LP  0  0  0  0  0  0  0  0  0  0  0  0  # atno 8894 bound_to 7801
   44.7574   14.3610   21.4647 LP  0  0  0  0  0  0  0  0  0  0  0  0  # atno 8895 bound_to 7801

> <Gold.Score>
     Fitness  S(hb_ext) S(vdw_ext)  S(hb_int)    S(int)      intcor
     27.62       1.78      21.05       0.00      -3.12      -0.76

> <Gold.Goldscore.Fitness>
27.6166

> <Gold.Goldscore.Internal.Vdw>
-3.1667

> <Gold.Goldscore.Internal.Torsion>
-0.7062

> <Gold.Goldscore.External.Vdw>
21.0537

> <Gold.Goldscore.Internal.HBond>
0.0000

> <Gold.Goldscore.External.HBond>
1.7850

> <Gold.Goldscore.Internal.Correction>
-0.7558

> <Gold.Goldscore.Hbonds>
donor molecule, donor type, donor heavy atom, donor atom, acceptor molecule, acceptor atom, score
      L1  H     8    22       P1  5316  0.89

> <Gold.Goldscore.Internal.Vdw.Weighted>
-3.1667

> <Gold.Goldscore.Internal.Torsion.Weighted>
-0.7062

> <Gold.Goldscore.External.Vdw.Weighted>
28.9488

> <Gold.Goldscore.Internal.HBond.Weighted>
0.0000

> <Gold.Goldscore.External.HBond.Weighted>
1.7850

> <Gold.Goldscore.Internal.Correction.Weighted>
-0.7558

> <Gold.Rescore>
     Score     S(PLP)   S(hbond)     S(cho)   S(metal)  DE(clash)   DE(tors)     intcor
     29.72     -29.48       1.00       0.00       0.00       1.14       0.81       ----

> <Gold.PLP.Fitness>
29.7222

> <Gold.PLP.PLP>
-29.4822

> <Gold.PLP.part.hbond>
-2.1674

> <Gold.PLP.part.metal>
0.0000

> <Gold.PLP.part.buried>
-4.1056

> <Gold.PLP.part.nonpolar>
-24.7880

> <Gold.PLP.part.repulsive>
0.7778

> <Gold.PLP.ligand.clash>
1.1396

> <Gold.PLP.ligand.torsion>
0.8102

> <Gold.PLP.Chemscore.Hbond>
1.0000

> <Gold.PLP.Chemscore.CHOScore>
0.0000

> <Gold.PLP.Chemscore.Metal>
0.0000

> <Gold.Chemscore.Hbonds>
donor molecule, donor type, donor heavy atom, donor atom, acceptor molecule, acceptor atom, score
      L1  H     8    22       P1  5316  1.00
      P1  H  8336  8343       L1    11  0.03

> <Gold.PLP.Chemscore.Internal.Correction>
   9.000000E+99

