#       Name:                CT1002167954
#       Creating user name   hitesit
#       Creation time:       Sun Apr 16 02:21:39 2023


#       File generated by GOLD software.
#

@<TRIPOS>MOLECULE
CT1002167954|ligand_prepared|mol2|1|dock4
    29    30     1
SMALL
NO_CHARGES


@<TRIPOS>ATOM
      1 C1          66.2599  -7.7016  12.0378 C.3            1 RES1               0.0000
      2 C2          67.5877  -7.1196  11.5113 C.ar           1 RES1               0.0000
      3 C3          65.5237  -6.5475  12.7119 C.2            1 RES1               0.0000
      4 C4          65.5363  -8.2777  10.8257 C.2            1 RES1               0.0000
      5 C5          66.4418  -8.8382  13.0705 C.3            1 RES1               0.0000
      6 C6          67.5936  -6.2007  10.4661 C.ar           1 RES1               0.0000
      7 C7          68.8121  -7.4894  12.0614 C.ar           1 RES1               0.0000
      8 N8          64.4498  -6.0165  12.0602 N.am           1 RES1               0.0000
      9 O9          65.9036  -6.0844  13.7803 O.2            1 RES1               0.0000
     10 N10         64.3608  -7.6887  10.4398 N.am           1 RES1               0.0000
     11 O11         65.9820  -9.2260  10.1914 O.2            1 RES1               0.0000
     12 C12         65.1402  -9.5108  13.4776 C.3            1 RES1               0.0000
     13 C13         68.7804  -5.6684   9.9901 C.ar           1 RES1               0.0000
     14 C14         69.9978  -6.9561  11.5837 C.ar           1 RES1               0.0000
     15 C15         63.8005  -6.5650  10.9835 C.2            1 RES1               0.0000
     16 C16         69.9831  -6.0453  10.5487 C.ar           1 RES1               0.0000
     17 O17         62.7690  -6.0629  10.5463 O.2            1 RES1               0.0000
     18 H18         67.1133  -9.5955  12.6475 H              1 RES1               0.0000
     19 H19         66.9222  -8.4272  13.9670 H              1 RES1               0.0000
     20 H20         66.6571  -5.8940  10.0124 H              1 RES1               0.0000
     21 H21         68.8479  -8.2051  12.8757 H              1 RES1               0.0000
     22 H22         64.0969  -5.1295  12.4052 H              1 RES1               0.0000
     23 H23         63.8566  -8.1287   9.6765 H              1 RES1               0.0000
     24 H24         65.3245 -10.3002  14.2032 H              1 RES1               0.0000
     25 H25         64.4579  -8.7913  13.9255 H              1 RES1               0.0000
     26 H26         64.6478  -9.9527  12.6138 H              1 RES1               0.0000
     27 H27         68.7635  -4.9531   9.1745 H              1 RES1               0.0000
     28 H28         70.9421  -7.2560  12.0259 H              1 RES1               0.0000
     29 H29         70.9126  -5.6279  10.1759 H              1 RES1               0.0000
@<TRIPOS>BOND
    1    1    2 1     
    2    1    3 1     
    3    1    4 1     
    4    1    5 1     
    5    2    6 ar    
    6    2    7 ar    
    7    3    8 1     
    8    3    9 2     
    9    4   10 1     
   10    4   11 2     
   11    5   12 1     
   12    5   18 1     
   13    5   19 1     
   14    6   13 ar    
   15    6   20 1     
   16    7   14 ar    
   17    7   21 1     
   18    8   15 1     
   19    8   22 1     
   20   10   15 1     
   21   10   23 1     
   22   12   24 1     
   23   12   25 1     
   24   12   26 1     
   25   13   16 ar    
   26   13   27 1     
   27   14   16 ar    
   28   14   28 1     
   29   15   17 2     
   30   16   29 1     
@<TRIPOS>SUBSTRUCTURE
      1 RES1           1
@<TRIPOS>SET
DONOR_HYDROGENS      STATIC     ATOMS    <user>   **** ""
2 22 23
ATOM$RED        STATIC     ATOMS    COLORGROUP SYSTEM
2 22 23
@<TRIPOS>COMMENT
> <Gold.Version>
2022.3.0

> <Gold.Id.Protein>
unknown|4g3y_cavity_clean|pdb

> <Gold.Protein.RotatedTorsions>
[ 8140 8133 8131 8128 ] final   35.12 input   60.03 | X-H torsion
[ 8349 8342 8340 8337 ] final  179.95 input   60.00 | X-H torsion
[ 8379 8374 8373 8370 ] final  -89.18 input   60.00 | X-H torsion
[ 5333 5330 5329 5326 ] final  107.78 input   60.01 | X-H torsion
[ 8399 8388 8387 8386 ] final   86.66 input   60.01 | X-H torsion
[ 5404 5399 5398 5395 ] final  139.87 input   59.99 | X-H torsion
[ 5434 5429 5428 5425 ] final   -6.72 input   59.99 | X-H torsion
[ 7810 7801 7800 7798 ] final  -92.36 input   60.01 | X-H torsion

> <Gold.Protein.ActiveResidues>
 LEU148  LYS150  PHE173  PRO174  ALA175  VAL176  GLN178  SER179  SER184  LEU185 
 SER186  TYR140  ARG142  VAL163  THR164  GLU165  GLN166  ASP167  LEU179  THR180 
 LEU181  SER182  LYS183 

> <Gold.Protein.RotatedAtoms>
   63.7260  -10.0710    8.4138 H   0  0  0  0  0  0  0  0  0  0  0  0  # atno 5333 bound_to 5330
   59.8258  -10.5012   18.5548 H   0  0  0  0  0  0  0  0  0  0  0  0  # atno 5404 bound_to 5399
   57.9397   -7.5748   23.5481 H   0  0  0  0  0  0  0  0  0  0  0  0  # atno 5434 bound_to 5429
   46.0789   15.0877   20.6567 H   0  0  0  0  0  0  0  0  0  0  0  0  # atno 7810 bound_to 7801
   48.8858    3.3120   22.8932 H   0  0  0  0  0  0  0  0  0  0  0  0  # atno 8140 bound_to 8133
   64.0925   -8.3995   17.0742 H   0  0  0  0  0  0  0  0  0  0  0  0  # atno 8349 bound_to 8342
   74.4408  -10.1998   14.9384 H   0  0  0  0  0  0  0  0  0  0  0  0  # atno 8379 bound_to 8374
   76.0061  -18.1501   23.2913 H   0  0  0  0  0  0  0  0  0  0  0  0  # atno 8399 bound_to 8388
   75.7147  -17.5031   24.7893 H   0  0  0  0  0  0  0  0  0  0  0  0  # atno 8400 bound_to 8388
   74.4552  -17.7838   23.7475 H   0  0  0  0  0  0  0  0  0  0  0  0  # atno 8401 bound_to 8388
   50.2658    2.8072   23.5924 LP  0  0  0  0  0  0  0  0  0  0  0  0  # atno 8830 bound_to 8133
   48.8594    2.7501   24.4202 LP  0  0  0  0  0  0  0  0  0  0  0  0  # atno 8831 bound_to 8133
   64.4493   -6.9578   17.7400 LP  0  0  0  0  0  0  0  0  0  0  0  0  # atno 8862 bound_to 8342
   65.0683   -8.3291   18.3749 LP  0  0  0  0  0  0  0  0  0  0  0  0  # atno 8863 bound_to 8342
   75.3542  -11.5459   14.9927 LP  0  0  0  0  0  0  0  0  0  0  0  0  # atno 8874 bound_to 8374
   74.8177  -10.8637   16.3759 LP  0  0  0  0  0  0  0  0  0  0  0  0  # atno 8875 bound_to 8374
   62.5840   -9.6658    9.5004 LP  0  0  0  0  0  0  0  0  0  0  0  0  # atno 8878 bound_to 5330
   63.4003   -8.5017    8.6972 LP  0  0  0  0  0  0  0  0  0  0  0  0  # atno 8879 bound_to 5330
   58.5162  -11.0524   19.3474 LP  0  0  0  0  0  0  0  0  0  0  0  0  # atno 8884 bound_to 5399
   58.9439   -9.4808   19.4650 LP  0  0  0  0  0  0  0  0  0  0  0  0  # atno 8885 bound_to 5399
   58.7339   -6.5773   24.5591 LP  0  0  0  0  0  0  0  0  0  0  0  0  # atno 8890 bound_to 5429
   58.2962   -6.0598   23.0734 LP  0  0  0  0  0  0  0  0  0  0  0  0  # atno 8891 bound_to 5429
   45.1767   15.7944   21.8116 LP  0  0  0  0  0  0  0  0  0  0  0  0  # atno 8894 bound_to 7801
   44.8491   14.2670   21.3359 LP  0  0  0  0  0  0  0  0  0  0  0  0  # atno 8895 bound_to 7801

> <Gold.Score>
     Fitness  S(hb_ext) S(vdw_ext)  S(hb_int)    S(int)      intcor
     22.88       1.79      15.38       0.00      -0.06      -0.76

> <Gold.Goldscore.Fitness>
22.8845

> <Gold.Goldscore.Internal.Vdw>
-0.3872

> <Gold.Goldscore.Internal.Torsion>
-0.4258

> <Gold.Goldscore.External.Vdw>
15.3832

> <Gold.Goldscore.Internal.HBond>
0.0000

> <Gold.Goldscore.External.HBond>
1.7898

> <Gold.Goldscore.Internal.Correction>
-0.7558

> <Gold.Goldscore.Hbonds>
donor molecule, donor type, donor heavy atom, donor atom, acceptor molecule, acceptor atom, score
      P1  H  5325  5334       L1    17  0.08
      L1  H    10    23       P1  5330  0.81

> <Gold.Goldscore.Internal.Vdw.Weighted>
-0.3872

> <Gold.Goldscore.Internal.Torsion.Weighted>
-0.4258

> <Gold.Goldscore.External.Vdw.Weighted>
21.1520

> <Gold.Goldscore.Internal.HBond.Weighted>
0.0000

> <Gold.Goldscore.External.HBond.Weighted>
1.7898

> <Gold.Goldscore.Internal.Correction.Weighted>
-0.7558

> <Gold.Rescore>
     Score     S(PLP)   S(hbond)     S(cho)   S(metal)  DE(clash)   DE(tors)     intcor
     27.24     -25.64       0.62       0.00       0.00       0.00       0.13       ----

> <Gold.PLP.Fitness>
27.2445

> <Gold.PLP.PLP>
-25.6392

> <Gold.PLP.part.hbond>
-2.4642

> <Gold.PLP.part.metal>
0.0000

> <Gold.PLP.part.buried>
-3.3002

> <Gold.PLP.part.nonpolar>
-20.9212

> <Gold.PLP.part.repulsive>
0.4696

> <Gold.PLP.ligand.clash>
0.0000

> <Gold.PLP.ligand.torsion>
0.1333

> <Gold.PLP.Chemscore.Hbond>
0.6240

> <Gold.PLP.Chemscore.CHOScore>
0.0000

> <Gold.PLP.Chemscore.Metal>
0.0000

> <Gold.Chemscore.Hbonds>
donor molecule, donor type, donor heavy atom, donor atom, acceptor molecule, acceptor atom, score
      L1  H    10    23       P1  5330  1.00

> <Gold.PLP.Chemscore.Internal.Correction>
   9.000000E+99

