#       Name:                GA Fitting Points
#       Creating user name   hitesit
#       Creation time:       Sun Apr 16 02:36:41 2023


#       Fitting Points Used by GA Software.
#

@<TRIPOS>MOLECULE
GA Fitting Points
  3558    0    0
SMALL
NO_CHARGES


@<TRIPOS>ATOM
      1 ****       247.5000 388.7500 -98.0000 Du        
      2 ****       247.5000 388.7500 -97.7500 Du        
      3 ****       247.5000 388.7500 -97.5000 Du        
      4 ****       247.5000 388.7500 -97.2500 Du        
      5 ****       247.5000 388.7500 -97.0000 Du        
      6 ****       247.5000 388.7500 -96.7500 Du        
      7 ****       247.5000 389.0000 -97.7500 Du        
      8 ****       247.5000 389.0000 -97.5000 Du        
      9 ****       247.5000 389.0000 -97.2500 Du        
     10 ****       247.5000 389.0000 -97.0000 Du        
     11 ****       247.5000 389.0000 -96.7500 Du        
     12 ****       247.5000 389.2500 -97.2500 Du        
     13 ****       247.5000 389.2500 -97.0000 Du        
     14 ****       247.5000 389.2500 -96.7500 Du        
     15 ****       247.7500 388.5000 -98.2500 Du        
     16 ****       247.7500 388.5000 -98.0000 Du        
     17 ****       247.7500 388.7500 -98.7500 Du        
     18 ****       247.7500 388.7500 -98.5000 Du        
     19 ****       247.7500 388.7500 -98.2500 Du        
     20 ****       247.7500 388.7500 -98.0000 Du        
     21 ****       247.7500 388.7500 -97.7500 Du        
     22 ****       247.7500 388.7500 -97.5000 Du        
     23 ****       247.7500 388.7500 -97.2500 Du        
     24 ****       247.7500 388.7500 -97.0000 Du        
     25 ****       247.7500 388.7500 -96.7500 Du        
     26 ****       247.7500 389.0000 -98.7500 Du        
     27 ****       247.7500 389.0000 -98.5000 Du        
     28 ****       247.7500 389.0000 -98.2500 Du        
     29 ****       247.7500 389.0000 -98.0000 Du        
     30 ****       247.7500 389.0000 -97.7500 Du        
     31 ****       247.7500 389.0000 -97.5000 Du        
     32 ****       247.7500 389.0000 -97.2500 Du        
     33 ****       247.7500 389.0000 -97.0000 Du        
     34 ****       247.7500 389.0000 -96.7500 Du        
     35 ****       247.7500 389.0000 -96.5000 Du        
     36 ****       247.7500 389.2500 -98.5000 Du        
     37 ****       247.7500 389.2500 -98.2500 Du        
     38 ****       247.7500 389.2500 -98.0000 Du        
     39 ****       247.7500 389.2500 -97.7500 Du        
     40 ****       247.7500 389.2500 -97.5000 Du        
     41 ****       247.7500 389.2500 -97.2500 Du        
     42 ****       247.7500 389.2500 -97.0000 Du        
     43 ****       247.7500 389.2500 -96.7500 Du        
     44 ****       247.7500 389.2500 -96.5000 Du        
     45 ****       247.7500 389.5000 -98.0000 Du        
     46 ****       247.7500 389.5000 -97.7500 Du        
     47 ****       247.7500 389.5000 -97.5000 Du        
     48 ****       247.7500 389.5000 -97.2500 Du        
     49 ****       247.7500 389.5000 -97.0000 Du        
     50 ****       247.7500 389.5000 -96.7500 Du        
     51 ****       247.7500 389.7500 -97.5000 Du        
     52 ****       247.7500 389.7500 -97.2500 Du        
     53 ****       247.7500 389.7500 -97.0000 Du        
     54 ****       248.0000 388.5000 -98.7500 Du        
     55 ****       248.0000 388.5000 -98.5000 Du        
     56 ****       248.0000 388.5000 -98.2500 Du        
     57 ****       248.0000 388.7500 -99.2500 Du        
     58 ****       248.0000 388.7500 -99.0000 Du        
     59 ****       248.0000 388.7500 -98.7500 Du        
     60 ****       248.0000 388.7500 -98.5000 Du        
     61 ****       248.0000 388.7500 -98.2500 Du        
     62 ****       248.0000 388.7500 -98.0000 Du        
     63 ****       248.0000 388.7500 -97.7500 Du        
     64 ****       248.0000 388.7500 -97.5000 Du        
     65 ****       248.0000 388.7500 -97.2500 Du        
     66 ****       248.0000 388.7500 -97.0000 Du        
     67 ****       248.0000 388.7500 -96.7500 Du        
     68 ****       248.0000 388.7500 -96.5000 Du        
     69 ****       248.0000 389.0000 -99.2500 Du        
     70 ****       248.0000 389.0000 -99.0000 Du        
     71 ****       248.0000 389.0000 -98.7500 Du        
     72 ****       248.0000 389.0000 -98.5000 Du        
     73 ****       248.0000 389.0000 -98.2500 Du        
     74 ****       248.0000 389.0000 -98.0000 Du        
     75 ****       248.0000 389.0000 -97.7500 Du        
     76 ****       248.0000 389.0000 -97.5000 Du        
     77 ****       248.0000 389.0000 -97.2500 Du        
     78 ****       248.0000 389.0000 -97.0000 Du        
     79 ****       248.0000 389.0000 -96.7500 Du        
     80 ****       248.0000 389.0000 -96.5000 Du        
     81 ****       248.0000 389.2500 -99.0000 Du        
     82 ****       248.0000 389.2500 -98.7500 Du        
     83 ****       248.0000 389.2500 -98.5000 Du        
     84 ****       248.0000 389.2500 -98.2500 Du        
     85 ****       248.0000 389.2500 -98.0000 Du        
     86 ****       248.0000 389.2500 -97.7500 Du        
     87 ****       248.0000 389.2500 -97.5000 Du        
     88 ****       248.0000 389.2500 -97.2500 Du        
     89 ****       248.0000 389.2500 -97.0000 Du        
     90 ****       248.0000 389.2500 -96.7500 Du        
     91 ****       248.0000 389.5000 -98.2500 Du        
     92 ****       248.0000 389.5000 -98.0000 Du        
     93 ****       248.0000 389.5000 -97.7500 Du        
     94 ****       248.0000 389.5000 -97.5000 Du        
     95 ****       248.0000 389.5000 -97.2500 Du        
     96 ****       248.0000 389.5000 -97.0000 Du        
     97 ****       248.0000 389.5000 -96.7500 Du        
     98 ****       248.0000 389.7500 -97.7500 Du        
     99 ****       248.0000 389.7500 -97.5000 Du        
    100 ****       248.0000 389.7500 -97.2500 Du        
    101 ****       248.0000 389.7500 -97.0000 Du        
    102 ****       248.2500 388.5000 -99.0000 Du        
    103 ****       248.2500 388.5000 -98.7500 Du        
    104 ****       248.2500 388.5000 -98.5000 Du        
    105 ****       248.2500 388.5000 -98.2500 Du        
    106 ****       248.2500 388.7500 -99.2500 Du        
    107 ****       248.2500 388.7500 -99.0000 Du        
    108 ****       248.2500 388.7500 -98.7500 Du        
    109 ****       248.2500 388.7500 -98.5000 Du        
    110 ****       248.2500 388.7500 -98.2500 Du        
    111 ****       248.2500 388.7500 -98.0000 Du        
    112 ****       248.2500 388.7500 -97.7500 Du        
    113 ****       248.2500 388.7500 -97.5000 Du        
    114 ****       248.2500 388.7500 -97.2500 Du        
    115 ****       248.2500 388.7500 -97.0000 Du        
    116 ****       248.2500 388.7500 -96.7500 Du        
    117 ****       248.2500 389.0000 -99.5000 Du        
    118 ****       248.2500 389.0000 -99.2500 Du        
    119 ****       248.2500 389.0000 -99.0000 Du        
    120 ****       248.2500 389.0000 -98.7500 Du        
    121 ****       248.2500 389.0000 -98.5000 Du        
    122 ****       248.2500 389.0000 -98.2500 Du        
    123 ****       248.2500 389.0000 -98.0000 Du        
    124 ****       248.2500 389.0000 -97.7500 Du        
    125 ****       248.2500 389.0000 -97.5000 Du        
    126 ****       248.2500 389.0000 -97.2500 Du        
    127 ****       248.2500 389.0000 -97.0000 Du        
    128 ****       248.2500 389.0000 -96.7500 Du        
    129 ****       248.2500 389.0000 -96.5000 Du        
    130 ****       248.2500 389.2500 -99.5000 Du        
    131 ****       248.2500 389.2500 -99.2500 Du        
    132 ****       248.2500 389.2500 -99.0000 Du        
    133 ****       248.2500 389.2500 -98.7500 Du        
    134 ****       248.2500 389.2500 -98.5000 Du        
    135 ****       248.2500 389.2500 -98.2500 Du        
    136 ****       248.2500 389.2500 -98.0000 Du        
    137 ****       248.2500 389.2500 -97.7500 Du        
    138 ****       248.2500 389.2500 -97.5000 Du        
    139 ****       248.2500 389.2500 -97.2500 Du        
    140 ****       248.2500 389.2500 -97.0000 Du        
    141 ****       248.2500 389.2500 -96.7500 Du        
    142 ****       248.2500 389.5000 -98.2500 Du        
    143 ****       248.2500 389.5000 -98.0000 Du        
    144 ****       248.2500 389.5000 -97.7500 Du        
    145 ****       248.2500 389.5000 -97.5000 Du        
    146 ****       248.2500 389.5000 -97.2500 Du        
    147 ****       248.2500 389.5000 -97.0000 Du        
    148 ****       248.2500 389.7500 -97.7500 Du        
    149 ****       248.2500 389.7500 -97.5000 Du        
    150 ****       248.2500 389.7500 -97.2500 Du        
    151 ****       248.5000 388.5000 -99.0000 Du        
    152 ****       248.5000 388.5000 -98.7500 Du        
    153 ****       248.5000 388.5000 -98.5000 Du        
    154 ****       248.5000 388.7500 -99.5000 Du        
    155 ****       248.5000 388.7500 -99.2500 Du        
    156 ****       248.5000 388.7500 -99.0000 Du        
    157 ****       248.5000 388.7500 -98.7500 Du        
    158 ****       248.5000 388.7500 -98.5000 Du        
    159 ****       248.5000 388.7500 -98.2500 Du        
    160 ****       248.5000 388.7500 -98.0000 Du        
    161 ****       248.5000 388.7500 -97.7500 Du        
    162 ****       248.5000 388.7500 -97.5000 Du        
    163 ****       248.5000 388.7500 -97.2500 Du        
    164 ****       248.5000 388.7500 -97.0000 Du        
    165 ****       248.5000 388.7500 -96.7500 Du        
    166 ****       248.5000 389.0000 -100.0000 Du        
    167 ****       248.5000 389.0000 -99.7500 Du        
    168 ****       248.5000 389.0000 -99.5000 Du        
    169 ****       248.5000 389.0000 -99.2500 Du        
    170 ****       248.5000 389.0000 -99.0000 Du        
    171 ****       248.5000 389.0000 -98.7500 Du        
    172 ****       248.5000 389.0000 -98.5000 Du        
    173 ****       248.5000 389.0000 -98.2500 Du        
    174 ****       248.5000 389.0000 -98.0000 Du        
    175 ****       248.5000 389.0000 -97.7500 Du        
    176 ****       248.5000 389.0000 -97.5000 Du        
    177 ****       248.5000 389.0000 -97.2500 Du        
    178 ****       248.5000 389.0000 -97.0000 Du        
    179 ****       248.5000 389.0000 -96.7500 Du        
    180 ****       248.5000 389.2500 -100.2500 Du        
    181 ****       248.5000 389.2500 -100.0000 Du        
    182 ****       248.5000 389.2500 -99.7500 Du        
    183 ****       248.5000 389.2500 -99.5000 Du        
    184 ****       248.5000 389.2500 -99.2500 Du        
    185 ****       248.5000 389.2500 -99.0000 Du        
    186 ****       248.5000 389.2500 -98.7500 Du        
    187 ****       248.5000 389.2500 -98.5000 Du        
    188 ****       248.5000 389.2500 -98.2500 Du        
    189 ****       248.5000 389.2500 -98.0000 Du        
    190 ****       248.5000 389.2500 -97.7500 Du        
    191 ****       248.5000 389.2500 -97.5000 Du        
    192 ****       248.5000 389.2500 -97.2500 Du        
    193 ****       248.5000 389.2500 -97.0000 Du        
    194 ****       248.5000 389.5000 -98.2500 Du        
    195 ****       248.5000 389.5000 -98.0000 Du        
    196 ****       248.5000 389.5000 -97.7500 Du        
    197 ****       248.5000 389.5000 -97.5000 Du        
    198 ****       248.5000 389.5000 -97.2500 Du        
    199 ****       248.5000 389.7500 -101.2500 Du        
    200 ****       248.5000 389.7500 -97.7500 Du        
    201 ****       248.5000 389.7500 -97.5000 Du        
    202 ****       248.7500 388.5000 -99.2500 Du        
    203 ****       248.7500 388.5000 -99.0000 Du        
    204 ****       248.7500 388.5000 -98.7500 Du        
    205 ****       248.7500 388.5000 -98.5000 Du        
    206 ****       248.7500 388.7500 -100.0000 Du        
    207 ****       248.7500 388.7500 -99.7500 Du        
    208 ****       248.7500 388.7500 -99.5000 Du        
    209 ****       248.7500 388.7500 -99.2500 Du        
    210 ****       248.7500 388.7500 -99.0000 Du        
    211 ****       248.7500 388.7500 -98.7500 Du        
    212 ****       248.7500 388.7500 -98.5000 Du        
    213 ****       248.7500 388.7500 -98.2500 Du        
    214 ****       248.7500 388.7500 -98.0000 Du        
    215 ****       248.7500 388.7500 -97.7500 Du        
    216 ****       248.7500 388.7500 -97.5000 Du        
    217 ****       248.7500 388.7500 -97.2500 Du        
    218 ****       248.7500 388.7500 -97.0000 Du        
    219 ****       248.7500 389.0000 -100.7500 Du        
    220 ****       248.7500 389.0000 -100.5000 Du        
    221 ****       248.7500 389.0000 -100.2500 Du        
    222 ****       248.7500 389.0000 -100.0000 Du        
    223 ****       248.7500 389.0000 -99.7500 Du        
    224 ****       248.7500 389.0000 -99.5000 Du        
    225 ****       248.7500 389.0000 -99.2500 Du        
    226 ****       248.7500 389.0000 -99.0000 Du        
    227 ****       248.7500 389.0000 -98.7500 Du        
    228 ****       248.7500 389.0000 -98.5000 Du        
    229 ****       248.7500 389.0000 -98.2500 Du        
    230 ****       248.7500 389.0000 -98.0000 Du        
    231 ****       248.7500 389.0000 -97.7500 Du        
    232 ****       248.7500 389.0000 -97.5000 Du        
    233 ****       248.7500 389.0000 -97.2500 Du        
    234 ****       248.7500 389.0000 -97.0000 Du        
    235 ****       248.7500 389.2500 -101.2500 Du        
    236 ****       248.7500 389.2500 -101.0000 Du        
    237 ****       248.7500 389.2500 -100.7500 Du        
    238 ****       248.7500 389.2500 -100.5000 Du        
    239 ****       248.7500 389.2500 -100.2500 Du        
    240 ****       248.7500 389.2500 -100.0000 Du        
    241 ****       248.7500 389.2500 -99.7500 Du        
    242 ****       248.7500 389.2500 -99.5000 Du        
    243 ****       248.7500 389.2500 -99.2500 Du        
    244 ****       248.7500 389.2500 -99.0000 Du        
    245 ****       248.7500 389.2500 -98.7500 Du        
    246 ****       248.7500 389.2500 -98.5000 Du        
    247 ****       248.7500 389.2500 -98.2500 Du        
    248 ****       248.7500 389.2500 -98.0000 Du        
    249 ****       248.7500 389.2500 -97.7500 Du        
    250 ****       248.7500 389.2500 -97.5000 Du        
    251 ****       248.7500 389.2500 -97.2500 Du        
    252 ****       248.7500 389.2500 -97.0000 Du        
    253 ****       248.7500 389.5000 -101.5000 Du        
    254 ****       248.7500 389.5000 -101.2500 Du        
    255 ****       248.7500 389.5000 -101.0000 Du        
    256 ****       248.7500 389.5000 -100.7500 Du        
    257 ****       248.7500 389.5000 -100.5000 Du        
    258 ****       248.7500 389.5000 -100.2500 Du        
    259 ****       248.7500 389.5000 -98.2500 Du        
    260 ****       248.7500 389.5000 -98.0000 Du        
    261 ****       248.7500 389.5000 -97.7500 Du        
    262 ****       248.7500 389.5000 -97.5000 Du        
    263 ****       248.7500 389.5000 -97.2500 Du        
    264 ****       248.7500 389.7500 -101.5000 Du        
    265 ****       248.7500 389.7500 -101.2500 Du        
    266 ****       248.7500 389.7500 -101.0000 Du        
    267 ****       248.7500 389.7500 -100.7500 Du        
    268 ****       248.7500 390.0000 -101.5000 Du        
    269 ****       248.7500 390.0000 -101.2500 Du        
    270 ****       249.0000 388.5000 -99.2500 Du        
    271 ****       249.0000 388.5000 -99.0000 Du        
    272 ****       249.0000 388.5000 -98.7500 Du        
    273 ****       249.0000 388.5000 -98.5000 Du        
    274 ****       249.0000 388.7500 -100.7500 Du        
    275 ****       249.0000 388.7500 -100.5000 Du        
    276 ****       249.0000 388.7500 -100.2500 Du        
    277 ****       249.0000 388.7500 -100.0000 Du        
    278 ****       249.0000 388.7500 -99.7500 Du        
    279 ****       249.0000 388.7500 -99.5000 Du        
    280 ****       249.0000 388.7500 -99.2500 Du        
    281 ****       249.0000 388.7500 -99.0000 Du        
    282 ****       249.0000 388.7500 -98.7500 Du        
    283 ****       249.0000 388.7500 -98.5000 Du        
    284 ****       249.0000 388.7500 -98.2500 Du        
    285 ****       249.0000 388.7500 -98.0000 Du        
    286 ****       249.0000 388.7500 -97.7500 Du        
    287 ****       249.0000 388.7500 -97.5000 Du        
    288 ****       249.0000 388.7500 -97.2500 Du        
    289 ****       249.0000 388.7500 -97.0000 Du        
    290 ****       249.0000 389.0000 -101.2500 Du        
    291 ****       249.0000 389.0000 -101.0000 Du        
    292 ****       249.0000 389.0000 -100.7500 Du        
    293 ****       249.0000 389.0000 -100.5000 Du        
    294 ****       249.0000 389.0000 -100.2500 Du        
    295 ****       249.0000 389.0000 -100.0000 Du        
    296 ****       249.0000 389.0000 -99.7500 Du        
    297 ****       249.0000 389.0000 -99.5000 Du        
    298 ****       249.0000 389.0000 -99.2500 Du        
    299 ****       249.0000 389.0000 -99.0000 Du        
    300 ****       249.0000 389.0000 -98.7500 Du        
    301 ****       249.0000 389.0000 -98.5000 Du        
    302 ****       249.0000 389.0000 -98.2500 Du        
    303 ****       249.0000 389.0000 -98.0000 Du        
    304 ****       249.0000 389.0000 -97.7500 Du        
    305 ****       249.0000 389.0000 -97.5000 Du        
    306 ****       249.0000 389.0000 -97.2500 Du        
    307 ****       249.0000 389.0000 -97.0000 Du        
    308 ****       249.0000 389.2500 -101.5000 Du        
    309 ****       249.0000 389.2500 -101.2500 Du        
    310 ****       249.0000 389.2500 -101.0000 Du        
    311 ****       249.0000 389.2500 -100.7500 Du        
    312 ****       249.0000 389.2500 -100.5000 Du        
    313 ****       249.0000 389.2500 -100.2500 Du        
    314 ****       249.0000 389.2500 -100.0000 Du        
    315 ****       249.0000 389.2500 -99.7500 Du        
    316 ****       249.0000 389.2500 -99.5000 Du        
    317 ****       249.0000 389.2500 -99.2500 Du        
    318 ****       249.0000 389.2500 -99.0000 Du        
    319 ****       249.0000 389.2500 -98.7500 Du        
    320 ****       249.0000 389.2500 -98.5000 Du        
    321 ****       249.0000 389.2500 -98.2500 Du        
    322 ****       249.0000 389.2500 -98.0000 Du        
    323 ****       249.0000 389.2500 -97.7500 Du        
    324 ****       249.0000 389.2500 -97.5000 Du        
    325 ****       249.0000 389.2500 -97.2500 Du        
    326 ****       249.0000 389.5000 -101.5000 Du        
    327 ****       249.0000 389.5000 -101.2500 Du        
    328 ****       249.0000 389.5000 -101.0000 Du        
    329 ****       249.0000 389.5000 -100.7500 Du        
    330 ****       249.0000 389.5000 -100.5000 Du        
    331 ****       249.0000 389.5000 -100.2500 Du        
    332 ****       249.0000 389.5000 -100.0000 Du        
    333 ****       249.0000 389.5000 -98.2500 Du        
    334 ****       249.0000 389.5000 -98.0000 Du        
    335 ****       249.0000 389.5000 -97.7500 Du        
    336 ****       249.0000 389.5000 -97.5000 Du        
    337 ****       249.0000 389.7500 -101.5000 Du        
    338 ****       249.0000 389.7500 -101.2500 Du        
    339 ****       249.0000 389.7500 -101.0000 Du        
    340 ****       249.0000 389.7500 -100.7500 Du        
    341 ****       249.0000 390.0000 -101.5000 Du        
    342 ****       249.0000 390.0000 -101.2500 Du        
    343 ****       249.0000 390.0000 -101.0000 Du        
    344 ****       249.2500 388.5000 -100.0000 Du        
    345 ****       249.2500 388.5000 -99.7500 Du        
    346 ****       249.2500 388.5000 -99.5000 Du        
    347 ****       249.2500 388.5000 -99.2500 Du        
    348 ****       249.2500 388.5000 -99.0000 Du        
    349 ****       249.2500 388.5000 -98.7500 Du        
    350 ****       249.2500 388.7500 -101.2500 Du        
    351 ****       249.2500 388.7500 -101.0000 Du        
    352 ****       249.2500 388.7500 -100.7500 Du        
    353 ****       249.2500 388.7500 -100.5000 Du        
    354 ****       249.2500 388.7500 -100.2500 Du        
    355 ****       249.2500 388.7500 -100.0000 Du        
    356 ****       249.2500 388.7500 -99.7500 Du        
    357 ****       249.2500 388.7500 -99.5000 Du        
    358 ****       249.2500 388.7500 -99.2500 Du        
    359 ****       249.2500 388.7500 -99.0000 Du        
    360 ****       249.2500 388.7500 -98.7500 Du        
    361 ****       249.2500 388.7500 -98.5000 Du        
    362 ****       249.2500 388.7500 -98.2500 Du        
    363 ****       249.2500 388.7500 -98.0000 Du        
    364 ****       249.2500 388.7500 -97.7500 Du        
    365 ****       249.2500 388.7500 -97.5000 Du        
    366 ****       249.2500 389.0000 -101.5000 Du        
    367 ****       249.2500 389.0000 -101.2500 Du        
    368 ****       249.2500 389.0000 -101.0000 Du        
    369 ****       249.2500 389.0000 -100.7500 Du        
    370 ****       249.2500 389.0000 -100.5000 Du        
    371 ****       249.2500 389.0000 -100.2500 Du        
    372 ****       249.2500 389.0000 -100.0000 Du        
    373 ****       249.2500 389.0000 -99.7500 Du        
    374 ****       249.2500 389.0000 -99.5000 Du        
    375 ****       249.2500 389.0000 -99.2500 Du        
    376 ****       249.2500 389.0000 -99.0000 Du        
    377 ****       249.2500 389.0000 -98.7500 Du        
    378 ****       249.2500 389.0000 -98.5000 Du        
    379 ****       249.2500 389.0000 -98.2500 Du        
    380 ****       249.2500 389.0000 -98.0000 Du        
    381 ****       249.2500 389.0000 -97.7500 Du        
    382 ****       249.2500 389.0000 -97.5000 Du        
    383 ****       249.2500 389.0000 -97.2500 Du        
    384 ****       249.2500 389.0000 -97.0000 Du        
    385 ****       249.2500 389.2500 -101.5000 Du        
    386 ****       249.2500 389.2500 -101.2500 Du        
    387 ****       249.2500 389.2500 -101.0000 Du        
    388 ****       249.2500 389.2500 -100.7500 Du        
    389 ****       249.2500 389.2500 -100.5000 Du        
    390 ****       249.2500 389.2500 -100.2500 Du        
    391 ****       249.2500 389.2500 -100.0000 Du        
    392 ****       249.2500 389.2500 -99.7500 Du        
    393 ****       249.2500 389.2500 -99.5000 Du        
    394 ****       249.2500 389.2500 -99.2500 Du        
    395 ****       249.2500 389.2500 -99.0000 Du        
    396 ****       249.2500 389.2500 -98.7500 Du        
    397 ****       249.2500 389.2500 -98.5000 Du        
    398 ****       249.2500 389.2500 -98.2500 Du        
    399 ****       249.2500 389.2500 -98.0000 Du        
    400 ****       249.2500 389.2500 -97.7500 Du        
    401 ****       249.2500 389.2500 -97.5000 Du        
    402 ****       249.2500 389.2500 -97.2500 Du        
    403 ****       249.2500 389.5000 -101.5000 Du        
    404 ****       249.2500 389.5000 -101.2500 Du        
    405 ****       249.2500 389.5000 -101.0000 Du        
    406 ****       249.2500 389.5000 -100.7500 Du        
    407 ****       249.2500 389.5000 -100.5000 Du        
    408 ****       249.2500 389.5000 -100.2500 Du        
    409 ****       249.2500 389.5000 -100.0000 Du        
    410 ****       249.2500 389.5000 -99.7500 Du        
    411 ****       249.2500 389.5000 -98.2500 Du        
    412 ****       249.2500 389.5000 -98.0000 Du        
    413 ****       249.2500 389.5000 -97.7500 Du        
    414 ****       249.2500 389.5000 -97.5000 Du        
    415 ****       249.2500 389.7500 -101.5000 Du        
    416 ****       249.2500 389.7500 -101.2500 Du        
    417 ****       249.2500 389.7500 -101.0000 Du        
    418 ****       249.2500 389.7500 -100.7500 Du        
    419 ****       249.2500 389.7500 -100.5000 Du        
    420 ****       249.2500 390.0000 -101.5000 Du        
    421 ****       249.2500 390.0000 -101.2500 Du        
    422 ****       249.2500 390.0000 -101.0000 Du        
    423 ****       249.5000 388.5000 -101.0000 Du        
    424 ****       249.5000 388.5000 -100.7500 Du        
    425 ****       249.5000 388.5000 -100.5000 Du        
    426 ****       249.5000 388.5000 -100.2500 Du        
    427 ****       249.5000 388.5000 -100.0000 Du        
    428 ****       249.5000 388.5000 -99.7500 Du        
    429 ****       249.5000 388.5000 -99.5000 Du        
    430 ****       249.5000 388.5000 -99.2500 Du        
    431 ****       249.5000 388.5000 -99.0000 Du        
    432 ****       249.5000 388.7500 -101.5000 Du        
    433 ****       249.5000 388.7500 -101.2500 Du        
    434 ****       249.5000 388.7500 -101.0000 Du        
    435 ****       249.5000 388.7500 -100.7500 Du        
    436 ****       249.5000 388.7500 -100.5000 Du        
    437 ****       249.5000 388.7500 -100.2500 Du        
    438 ****       249.5000 388.7500 -100.0000 Du        
    439 ****       249.5000 388.7500 -99.7500 Du        
    440 ****       249.5000 388.7500 -99.5000 Du        
    441 ****       249.5000 388.7500 -99.2500 Du        
    442 ****       249.5000 388.7500 -99.0000 Du        
    443 ****       249.5000 388.7500 -98.7500 Du        
    444 ****       249.5000 388.7500 -98.5000 Du        
    445 ****       249.5000 389.0000 -101.5000 Du        
    446 ****       249.5000 389.0000 -101.2500 Du        
    447 ****       249.5000 389.0000 -101.0000 Du        
    448 ****       249.5000 389.0000 -100.7500 Du        
    449 ****       249.5000 389.0000 -100.5000 Du        
    450 ****       249.5000 389.0000 -100.2500 Du        
    451 ****       249.5000 389.0000 -100.0000 Du        
    452 ****       249.5000 389.0000 -99.7500 Du        
    453 ****       249.5000 389.0000 -99.5000 Du        
    454 ****       249.5000 389.0000 -99.2500 Du        
    455 ****       249.5000 389.0000 -99.0000 Du        
    456 ****       249.5000 389.0000 -98.7500 Du        
    457 ****       249.5000 389.0000 -98.5000 Du        
    458 ****       249.5000 389.0000 -98.2500 Du        
    459 ****       249.5000 389.0000 -98.0000 Du        
    460 ****       249.5000 389.0000 -97.7500 Du        
    461 ****       249.5000 389.0000 -97.5000 Du        
    462 ****       249.5000 389.2500 -101.5000 Du        
    463 ****       249.5000 389.2500 -101.2500 Du        
    464 ****       249.5000 389.2500 -101.0000 Du        
    465 ****       249.5000 389.2500 -100.7500 Du        
    466 ****       249.5000 389.2500 -100.5000 Du        
    467 ****       249.5000 389.2500 -100.2500 Du        
    468 ****       249.5000 389.2500 -100.0000 Du        
    469 ****       249.5000 389.2500 -99.7500 Du        
    470 ****       249.5000 389.2500 -99.5000 Du        
    471 ****       249.5000 389.2500 -99.2500 Du        
    472 ****       249.5000 389.2500 -99.0000 Du        
    473 ****       249.5000 389.2500 -98.7500 Du        
    474 ****       249.5000 389.2500 -98.5000 Du        
    475 ****       249.5000 389.2500 -98.2500 Du        
    476 ****       249.5000 389.2500 -98.0000 Du        
    477 ****       249.5000 389.2500 -97.7500 Du        
    478 ****       249.5000 389.2500 -97.5000 Du        
    479 ****       249.5000 389.5000 -101.5000 Du        
    480 ****       249.5000 389.5000 -101.2500 Du        
    481 ****       249.5000 389.5000 -101.0000 Du        
    482 ****       249.5000 389.5000 -100.7500 Du        
    483 ****       249.5000 389.5000 -100.5000 Du        
    484 ****       249.5000 389.5000 -100.2500 Du        
    485 ****       249.5000 389.5000 -100.0000 Du        
    486 ****       249.5000 389.5000 -99.7500 Du        
    487 ****       249.5000 389.5000 -98.0000 Du        
    488 ****       249.5000 389.5000 -97.7500 Du        
    489 ****       249.5000 389.7500 -101.5000 Du        
    490 ****       249.5000 389.7500 -101.2500 Du        
    491 ****       249.5000 389.7500 -101.0000 Du        
    492 ****       249.5000 389.7500 -100.7500 Du        
    493 ****       249.5000 389.7500 -100.5000 Du        
    494 ****       249.5000 390.0000 -101.5000 Du        
    495 ****       249.5000 390.0000 -101.2500 Du        
    496 ****       249.5000 390.0000 -101.0000 Du        
    497 ****       249.7500 388.2500 -100.7500 Du        
    498 ****       249.7500 388.2500 -100.5000 Du        
    499 ****       249.7500 388.2500 -100.2500 Du        
    500 ****       249.7500 388.2500 -100.0000 Du        
    501 ****       249.7500 388.2500 -99.7500 Du        
    502 ****       249.7500 388.5000 -101.2500 Du        
    503 ****       249.7500 388.5000 -101.0000 Du        
    504 ****       249.7500 388.5000 -100.7500 Du        
    505 ****       249.7500 388.5000 -100.5000 Du        
    506 ****       249.7500 388.5000 -100.2500 Du        
    507 ****       249.7500 388.5000 -100.0000 Du        
    508 ****       249.7500 388.5000 -99.7500 Du        
    509 ****       249.7500 388.5000 -99.5000 Du        
    510 ****       249.7500 388.5000 -99.2500 Du        
    511 ****       249.7500 388.7500 -101.5000 Du        
    512 ****       249.7500 388.7500 -101.2500 Du        
    513 ****       249.7500 388.7500 -101.0000 Du        
    514 ****       249.7500 388.7500 -100.7500 Du        
    515 ****       249.7500 388.7500 -100.5000 Du        
    516 ****       249.7500 388.7500 -100.2500 Du        
    517 ****       249.7500 388.7500 -100.0000 Du        
    518 ****       249.7500 388.7500 -99.7500 Du        
    519 ****       249.7500 388.7500 -99.5000 Du        
    520 ****       249.7500 388.7500 -99.2500 Du        
    521 ****       249.7500 388.7500 -99.0000 Du        
    522 ****       249.7500 388.7500 -98.7500 Du        
    523 ****       249.7500 389.0000 -101.5000 Du        
    524 ****       249.7500 389.0000 -101.2500 Du        
    525 ****       249.7500 389.0000 -101.0000 Du        
    526 ****       249.7500 389.0000 -100.7500 Du        
    527 ****       249.7500 389.0000 -100.5000 Du        
    528 ****       249.7500 389.0000 -100.2500 Du        
    529 ****       249.7500 389.0000 -100.0000 Du        
    530 ****       249.7500 389.0000 -99.7500 Du        
    531 ****       249.7500 389.0000 -99.5000 Du        
    532 ****       249.7500 389.0000 -99.2500 Du        
    533 ****       249.7500 389.0000 -99.0000 Du        
    534 ****       249.7500 389.0000 -98.7500 Du        
    535 ****       249.7500 389.0000 -98.5000 Du        
    536 ****       249.7500 389.0000 -98.2500 Du        
    537 ****       249.7500 389.0000 -98.0000 Du        
    538 ****       249.7500 389.0000 -97.7500 Du        
    539 ****       249.7500 389.2500 -101.5000 Du        
    540 ****       249.7500 389.2500 -101.2500 Du        
    541 ****       249.7500 389.2500 -101.0000 Du        
    542 ****       249.7500 389.2500 -100.7500 Du        
    543 ****       249.7500 389.2500 -100.5000 Du        
    544 ****       249.7500 389.2500 -100.2500 Du        
    545 ****       249.7500 389.2500 -100.0000 Du        
    546 ****       249.7500 389.2500 -99.7500 Du        
    547 ****       249.7500 389.2500 -99.5000 Du        
    548 ****       249.7500 389.2500 -99.2500 Du        
    549 ****       249.7500 389.2500 -99.0000 Du        
    550 ****       249.7500 389.2500 -98.7500 Du        
    551 ****       249.7500 389.2500 -98.5000 Du        
    552 ****       249.7500 389.2500 -98.2500 Du        
    553 ****       249.7500 389.2500 -98.0000 Du        
    554 ****       249.7500 389.2500 -97.7500 Du        
    555 ****       249.7500 389.2500 -97.5000 Du        
    556 ****       249.7500 389.5000 -101.5000 Du        
    557 ****       249.7500 389.5000 -101.2500 Du        
    558 ****       249.7500 389.5000 -101.0000 Du        
    559 ****       249.7500 389.5000 -100.7500 Du        
    560 ****       249.7500 389.5000 -100.5000 Du        
    561 ****       249.7500 389.5000 -100.2500 Du        
    562 ****       249.7500 389.5000 -100.0000 Du        
    563 ****       249.7500 389.5000 -99.7500 Du        
    564 ****       249.7500 389.5000 -99.5000 Du        
    565 ****       249.7500 389.5000 -98.7500 Du        
    566 ****       249.7500 389.5000 -98.0000 Du        
    567 ****       249.7500 389.5000 -97.7500 Du        
    568 ****       249.7500 389.7500 -101.5000 Du        
    569 ****       249.7500 389.7500 -101.2500 Du        
    570 ****       249.7500 389.7500 -101.0000 Du        
    571 ****       249.7500 389.7500 -100.7500 Du        
    572 ****       249.7500 389.7500 -100.5000 Du        
    573 ****       249.7500 389.7500 -100.2500 Du        
    574 ****       249.7500 390.0000 -101.5000 Du        
    575 ****       249.7500 390.0000 -101.2500 Du        
    576 ****       249.7500 390.0000 -101.0000 Du        
    577 ****       250.0000 388.2500 -101.0000 Du        
    578 ****       250.0000 388.2500 -100.7500 Du        
    579 ****       250.0000 388.2500 -100.5000 Du        
    580 ****       250.0000 388.2500 -100.2500 Du        
    581 ****       250.0000 388.2500 -100.0000 Du        
    582 ****       250.0000 388.2500 -99.7500 Du        
    583 ****       250.0000 388.5000 -101.2500 Du        
    584 ****       250.0000 388.5000 -101.0000 Du        
    585 ****       250.0000 388.5000 -100.7500 Du        
    586 ****       250.0000 388.5000 -100.5000 Du        
    587 ****       250.0000 388.5000 -100.2500 Du        
    588 ****       250.0000 388.5000 -100.0000 Du        
    589 ****       250.0000 388.5000 -99.7500 Du        
    590 ****       250.0000 388.5000 -99.5000 Du        
    591 ****       250.0000 388.7500 -101.5000 Du        
    592 ****       250.0000 388.7500 -101.2500 Du        
    593 ****       250.0000 388.7500 -101.0000 Du        
    594 ****       250.0000 388.7500 -100.7500 Du        
    595 ****       250.0000 388.7500 -100.5000 Du        
    596 ****       250.0000 388.7500 -100.2500 Du        
    597 ****       250.0000 388.7500 -100.0000 Du        
    598 ****       250.0000 388.7500 -99.7500 Du        
    599 ****       250.0000 388.7500 -99.5000 Du        
    600 ****       250.0000 388.7500 -99.2500 Du        
    601 ****       250.0000 388.7500 -99.0000 Du        
    602 ****       250.0000 389.0000 -101.5000 Du        
    603 ****       250.0000 389.0000 -101.2500 Du        
    604 ****       250.0000 389.0000 -101.0000 Du        
    605 ****       250.0000 389.0000 -100.7500 Du        
    606 ****       250.0000 389.0000 -100.5000 Du        
    607 ****       250.0000 389.0000 -100.2500 Du        
    608 ****       250.0000 389.0000 -100.0000 Du        
    609 ****       250.0000 389.0000 -99.7500 Du        
    610 ****       250.0000 389.0000 -99.5000 Du        
    611 ****       250.0000 389.0000 -99.2500 Du        
    612 ****       250.0000 389.0000 -99.0000 Du        
    613 ****       250.0000 389.0000 -98.7500 Du        
    614 ****       250.0000 389.0000 -98.5000 Du        
    615 ****       250.0000 389.0000 -98.2500 Du        
    616 ****       250.0000 389.0000 -98.0000 Du        
    617 ****       250.0000 389.2500 -101.5000 Du        
    618 ****       250.0000 389.2500 -101.2500 Du        
    619 ****       250.0000 389.2500 -101.0000 Du        
    620 ****       250.0000 389.2500 -100.7500 Du        
    621 ****       250.0000 389.2500 -100.5000 Du        
    622 ****       250.0000 389.2500 -100.2500 Du        
    623 ****       250.0000 389.2500 -100.0000 Du        
    624 ****       250.0000 389.2500 -99.7500 Du        
    625 ****       250.0000 389.2500 -99.5000 Du        
    626 ****       250.0000 389.2500 -99.2500 Du        
    627 ****       250.0000 389.2500 -99.0000 Du        
    628 ****       250.0000 389.2500 -98.7500 Du        
    629 ****       250.0000 389.2500 -98.5000 Du        
    630 ****       250.0000 389.2500 -98.2500 Du        
    631 ****       250.0000 389.2500 -98.0000 Du        
    632 ****       250.0000 389.2500 -97.7500 Du        
    633 ****       250.0000 389.2500 -97.5000 Du        
    634 ****       250.0000 389.5000 -101.5000 Du        
    635 ****       250.0000 389.5000 -101.2500 Du        
    636 ****       250.0000 389.5000 -101.0000 Du        
    637 ****       250.0000 389.5000 -100.7500 Du        
    638 ****       250.0000 389.5000 -100.5000 Du        
    639 ****       250.0000 389.5000 -100.2500 Du        
    640 ****       250.0000 389.5000 -100.0000 Du        
    641 ****       250.0000 389.5000 -99.7500 Du        
    642 ****       250.0000 389.5000 -99.5000 Du        
    643 ****       250.0000 389.5000 -99.2500 Du        
    644 ****       250.0000 389.5000 -99.0000 Du        
    645 ****       250.0000 389.5000 -98.7500 Du        
    646 ****       250.0000 389.5000 -98.0000 Du        
    647 ****       250.0000 389.5000 -97.7500 Du        
    648 ****       250.0000 389.7500 -101.5000 Du        
    649 ****       250.0000 389.7500 -101.2500 Du        
    650 ****       250.0000 389.7500 -101.0000 Du        
    651 ****       250.0000 389.7500 -100.7500 Du        
    652 ****       250.0000 389.7500 -100.5000 Du        
    653 ****       250.0000 389.7500 -100.2500 Du        
    654 ****       250.0000 390.0000 -101.5000 Du        
    655 ****       250.0000 390.0000 -101.2500 Du        
    656 ****       250.0000 390.0000 -101.0000 Du        
    657 ****       250.0000 390.0000 -100.7500 Du        
    658 ****       250.2500 388.0000 -100.5000 Du        
    659 ****       250.2500 388.0000 -100.2500 Du        
    660 ****       250.2500 388.2500 -101.0000 Du        
    661 ****       250.2500 388.2500 -100.7500 Du        
    662 ****       250.2500 388.2500 -100.5000 Du        
    663 ****       250.2500 388.2500 -100.2500 Du        
    664 ****       250.2500 388.2500 -100.0000 Du        
    665 ****       250.2500 388.2500 -99.7500 Du        
    666 ****       250.2500 388.5000 -101.2500 Du        
    667 ****       250.2500 388.5000 -101.0000 Du        
    668 ****       250.2500 388.5000 -100.7500 Du        
    669 ****       250.2500 388.5000 -100.5000 Du        
    670 ****       250.2500 388.5000 -100.2500 Du        
    671 ****       250.2500 388.5000 -100.0000 Du        
    672 ****       250.2500 388.5000 -99.7500 Du        
    673 ****       250.2500 388.5000 -99.5000 Du        
    674 ****       250.2500 388.7500 -101.5000 Du        
    675 ****       250.2500 388.7500 -101.2500 Du        
    676 ****       250.2500 388.7500 -101.0000 Du        
    677 ****       250.2500 388.7500 -100.7500 Du        
    678 ****       250.2500 388.7500 -100.5000 Du        
    679 ****       250.2500 388.7500 -100.2500 Du        
    680 ****       250.2500 388.7500 -100.0000 Du        
    681 ****       250.2500 388.7500 -99.7500 Du        
    682 ****       250.2500 388.7500 -99.5000 Du        
    683 ****       250.2500 388.7500 -99.2500 Du        
    684 ****       250.2500 389.0000 -101.5000 Du        
    685 ****       250.2500 389.0000 -101.2500 Du        
    686 ****       250.2500 389.0000 -101.0000 Du        
    687 ****       250.2500 389.0000 -100.7500 Du        
    688 ****       250.2500 389.0000 -100.5000 Du        
    689 ****       250.2500 389.0000 -100.2500 Du        
    690 ****       250.2500 389.0000 -100.0000 Du        
    691 ****       250.2500 389.0000 -99.7500 Du        
    692 ****       250.2500 389.0000 -99.5000 Du        
    693 ****       250.2500 389.0000 -99.2500 Du        
    694 ****       250.2500 389.0000 -99.0000 Du        
    695 ****       250.2500 389.0000 -98.7500 Du        
    696 ****       250.2500 389.2500 -101.5000 Du        
    697 ****       250.2500 389.2500 -101.2500 Du        
    698 ****       250.2500 389.2500 -101.0000 Du        
    699 ****       250.2500 389.2500 -100.7500 Du        
    700 ****       250.2500 389.2500 -100.5000 Du        
    701 ****       250.2500 389.2500 -100.2500 Du        
    702 ****       250.2500 389.2500 -100.0000 Du        
    703 ****       250.2500 389.2500 -99.7500 Du        
    704 ****       250.2500 389.2500 -99.5000 Du        
    705 ****       250.2500 389.2500 -99.2500 Du        
    706 ****       250.2500 389.2500 -99.0000 Du        
    707 ****       250.2500 389.2500 -98.7500 Du        
    708 ****       250.2500 389.2500 -98.5000 Du        
    709 ****       250.2500 389.2500 -98.2500 Du        
    710 ****       250.2500 389.2500 -98.0000 Du        
    711 ****       250.2500 389.2500 -97.7500 Du        
    712 ****       250.2500 389.2500 -97.5000 Du        
    713 ****       250.2500 389.5000 -101.5000 Du        
    714 ****       250.2500 389.5000 -101.2500 Du        
    715 ****       250.2500 389.5000 -101.0000 Du        
    716 ****       250.2500 389.5000 -100.7500 Du        
    717 ****       250.2500 389.5000 -100.5000 Du        
    718 ****       250.2500 389.5000 -100.2500 Du        
    719 ****       250.2500 389.5000 -100.0000 Du        
    720 ****       250.2500 389.5000 -99.7500 Du        
    721 ****       250.2500 389.5000 -99.5000 Du        
    722 ****       250.2500 389.5000 -99.2500 Du        
    723 ****       250.2500 389.5000 -99.0000 Du        
    724 ****       250.2500 389.5000 -98.7500 Du        
    725 ****       250.2500 389.5000 -98.2500 Du        
    726 ****       250.2500 389.5000 -98.0000 Du        
    727 ****       250.2500 389.5000 -97.7500 Du        
    728 ****       250.2500 389.5000 -97.5000 Du        
    729 ****       250.2500 389.7500 -101.5000 Du        
    730 ****       250.2500 389.7500 -101.2500 Du        
    731 ****       250.2500 389.7500 -101.0000 Du        
    732 ****       250.2500 389.7500 -100.7500 Du        
    733 ****       250.2500 389.7500 -100.5000 Du        
    734 ****       250.2500 389.7500 -100.2500 Du        
    735 ****       250.2500 389.7500 -100.0000 Du        
    736 ****       250.2500 390.0000 -101.5000 Du        
    737 ****       250.2500 390.0000 -101.2500 Du        
    738 ****       250.2500 390.0000 -101.0000 Du        
    739 ****       250.2500 390.0000 -100.7500 Du        
    740 ****       250.5000 388.0000 -100.5000 Du        
    741 ****       250.5000 388.0000 -100.2500 Du        
    742 ****       250.5000 388.2500 -101.0000 Du        
    743 ****       250.5000 388.2500 -100.7500 Du        
    744 ****       250.5000 388.2500 -100.5000 Du        
    745 ****       250.5000 388.2500 -100.2500 Du        
    746 ****       250.5000 388.2500 -100.0000 Du        
    747 ****       250.5000 388.5000 -101.2500 Du        
    748 ****       250.5000 388.5000 -101.0000 Du        
    749 ****       250.5000 388.5000 -100.7500 Du        
    750 ****       250.5000 388.5000 -100.5000 Du        
    751 ****       250.5000 388.5000 -100.2500 Du        
    752 ****       250.5000 388.5000 -100.0000 Du        
    753 ****       250.5000 388.5000 -99.7500 Du        
    754 ****       250.5000 388.7500 -101.5000 Du        
    755 ****       250.5000 388.7500 -101.2500 Du        
    756 ****       250.5000 388.7500 -101.0000 Du        
    757 ****       250.5000 388.7500 -100.7500 Du        
    758 ****       250.5000 388.7500 -100.5000 Du        
    759 ****       250.5000 388.7500 -100.2500 Du        
    760 ****       250.5000 388.7500 -100.0000 Du        
    761 ****       250.5000 388.7500 -99.7500 Du        
    762 ****       250.5000 388.7500 -99.5000 Du        
    763 ****       250.5000 389.0000 -101.5000 Du        
    764 ****       250.5000 389.0000 -101.2500 Du        
    765 ****       250.5000 389.0000 -101.0000 Du        
    766 ****       250.5000 389.0000 -100.7500 Du        
    767 ****       250.5000 389.0000 -100.5000 Du        
    768 ****       250.5000 389.0000 -100.2500 Du        
    769 ****       250.5000 389.0000 -100.0000 Du        
    770 ****       250.5000 389.0000 -99.7500 Du        
    771 ****       250.5000 389.0000 -99.5000 Du        
    772 ****       250.5000 389.0000 -99.2500 Du        
    773 ****       250.5000 389.0000 -99.0000 Du        
    774 ****       250.5000 389.2500 -101.5000 Du        
    775 ****       250.5000 389.2500 -101.2500 Du        
    776 ****       250.5000 389.2500 -101.0000 Du        
    777 ****       250.5000 389.2500 -100.7500 Du        
    778 ****       250.5000 389.2500 -100.5000 Du        
    779 ****       250.5000 389.2500 -100.2500 Du        
    780 ****       250.5000 389.2500 -100.0000 Du        
    781 ****       250.5000 389.2500 -99.7500 Du        
    782 ****       250.5000 389.2500 -99.5000 Du        
    783 ****       250.5000 389.2500 -99.2500 Du        
    784 ****       250.5000 389.2500 -99.0000 Du        
    785 ****       250.5000 389.2500 -98.7500 Du        
    786 ****       250.5000 389.5000 -101.5000 Du        
    787 ****       250.5000 389.5000 -101.2500 Du        
    788 ****       250.5000 389.5000 -101.0000 Du        
    789 ****       250.5000 389.5000 -100.7500 Du        
    790 ****       250.5000 389.5000 -100.5000 Du        
    791 ****       250.5000 389.5000 -100.2500 Du        
    792 ****       250.5000 389.5000 -100.0000 Du        
    793 ****       250.5000 389.5000 -99.7500 Du        
    794 ****       250.5000 389.5000 -99.5000 Du        
    795 ****       250.5000 389.5000 -99.2500 Du        
    796 ****       250.5000 389.5000 -99.0000 Du        
    797 ****       250.5000 389.5000 -98.7500 Du        
    798 ****       250.5000 389.5000 -98.2500 Du        
    799 ****       250.5000 389.5000 -98.0000 Du        
    800 ****       250.5000 389.5000 -97.7500 Du        
    801 ****       250.5000 389.7500 -101.5000 Du        
    802 ****       250.5000 389.7500 -101.2500 Du        
    803 ****       250.5000 389.7500 -101.0000 Du        
    804 ****       250.5000 389.7500 -100.7500 Du        
    805 ****       250.5000 389.7500 -100.5000 Du        
    806 ****       250.5000 389.7500 -100.2500 Du        
    807 ****       250.5000 389.7500 -100.0000 Du        
    808 ****       250.5000 390.0000 -101.5000 Du        
    809 ****       250.5000 390.0000 -101.2500 Du        
    810 ****       250.5000 390.0000 -101.0000 Du        
    811 ****       250.5000 390.0000 -100.7500 Du        
    812 ****       250.7500 388.2500 -101.0000 Du        
    813 ****       250.7500 388.2500 -100.7500 Du        
    814 ****       250.7500 388.2500 -100.5000 Du        
    815 ****       250.7500 388.2500 -100.2500 Du        
    816 ****       250.7500 388.2500 -100.0000 Du        
    817 ****       250.7500 388.5000 -101.2500 Du        
    818 ****       250.7500 388.5000 -101.0000 Du        
    819 ****       250.7500 388.5000 -100.7500 Du        
    820 ****       250.7500 388.5000 -100.5000 Du        
    821 ****       250.7500 388.5000 -100.2500 Du        
    822 ****       250.7500 388.5000 -100.0000 Du        
    823 ****       250.7500 388.5000 -99.7500 Du        
    824 ****       250.7500 388.7500 -101.5000 Du        
    825 ****       250.7500 388.7500 -101.2500 Du        
    826 ****       250.7500 388.7500 -101.0000 Du        
    827 ****       250.7500 388.7500 -100.7500 Du        
    828 ****       250.7500 388.7500 -100.5000 Du        
    829 ****       250.7500 388.7500 -100.2500 Du        
    830 ****       250.7500 388.7500 -100.0000 Du        
    831 ****       250.7500 388.7500 -99.7500 Du        
    832 ****       250.7500 388.7500 -99.5000 Du        
    833 ****       250.7500 389.0000 -101.5000 Du        
    834 ****       250.7500 389.0000 -101.2500 Du        
    835 ****       250.7500 389.0000 -101.0000 Du        
    836 ****       250.7500 389.0000 -100.7500 Du        
    837 ****       250.7500 389.0000 -100.5000 Du        
    838 ****       250.7500 389.0000 -100.2500 Du        
    839 ****       250.7500 389.0000 -100.0000 Du        
    840 ****       250.7500 389.0000 -99.7500 Du        
    841 ****       250.7500 389.0000 -99.5000 Du        
    842 ****       250.7500 389.0000 -99.2500 Du        
    843 ****       250.7500 389.0000 -99.0000 Du        
    844 ****       250.7500 389.2500 -101.5000 Du        
    845 ****       250.7500 389.2500 -101.2500 Du        
    846 ****       250.7500 389.2500 -101.0000 Du        
    847 ****       250.7500 389.2500 -100.7500 Du        
    848 ****       250.7500 389.2500 -100.5000 Du        
    849 ****       250.7500 389.2500 -100.2500 Du        
    850 ****       250.7500 389.2500 -100.0000 Du        
    851 ****       250.7500 389.2500 -99.7500 Du        
    852 ****       250.7500 389.2500 -99.5000 Du        
    853 ****       250.7500 389.2500 -99.2500 Du        
    854 ****       250.7500 389.2500 -99.0000 Du        
    855 ****       250.7500 389.2500 -98.7500 Du        
    856 ****       250.7500 389.5000 -101.5000 Du        
    857 ****       250.7500 389.5000 -101.2500 Du        
    858 ****       250.7500 389.5000 -101.0000 Du        
    859 ****       250.7500 389.5000 -100.7500 Du        
    860 ****       250.7500 389.5000 -100.5000 Du        
    861 ****       250.7500 389.5000 -100.2500 Du        
    862 ****       250.7500 389.5000 -100.0000 Du        
    863 ****       250.7500 389.5000 -99.7500 Du        
    864 ****       250.7500 389.5000 -99.5000 Du        
    865 ****       250.7500 389.5000 -99.2500 Du        
    866 ****       250.7500 389.5000 -99.0000 Du        
    867 ****       250.7500 389.5000 -98.7500 Du        
    868 ****       250.7500 389.5000 -98.5000 Du        
    869 ****       250.7500 389.5000 -98.2500 Du        
    870 ****       250.7500 389.5000 -98.0000 Du        
    871 ****       250.7500 389.5000 -97.7500 Du        
    872 ****       250.7500 389.5000 -97.5000 Du        
    873 ****       250.7500 389.7500 -101.7500 Du        
    874 ****       250.7500 389.7500 -101.5000 Du        
    875 ****       250.7500 389.7500 -101.2500 Du        
    876 ****       250.7500 389.7500 -101.0000 Du        
    877 ****       250.7500 389.7500 -100.7500 Du        
    878 ****       250.7500 389.7500 -100.5000 Du        
    879 ****       250.7500 389.7500 -100.2500 Du        
    880 ****       250.7500 389.7500 -100.0000 Du        
    881 ****       250.7500 389.7500 -99.7500 Du        
    882 ****       250.7500 389.7500 -98.2500 Du        
    883 ****       250.7500 389.7500 -98.0000 Du        
    884 ****       250.7500 389.7500 -97.7500 Du        
    885 ****       250.7500 389.7500 -97.5000 Du        
    886 ****       250.7500 390.0000 -101.7500 Du        
    887 ****       250.7500 390.0000 -101.5000 Du        
    888 ****       250.7500 390.0000 -101.2500 Du        
    889 ****       250.7500 390.0000 -101.0000 Du        
    890 ****       250.7500 390.0000 -100.7500 Du        
    891 ****       250.7500 390.0000 -100.5000 Du        
    892 ****       250.7500 390.2500 -101.2500 Du        
    893 ****       251.0000 388.2500 -101.0000 Du        
    894 ****       251.0000 388.2500 -100.7500 Du        
    895 ****       251.0000 388.2500 -100.5000 Du        
    896 ****       251.0000 388.2500 -100.2500 Du        
    897 ****       251.0000 388.5000 -101.2500 Du        
    898 ****       251.0000 388.5000 -101.0000 Du        
    899 ****       251.0000 388.5000 -100.7500 Du        
    900 ****       251.0000 388.5000 -100.5000 Du        
    901 ****       251.0000 388.5000 -100.2500 Du        
    902 ****       251.0000 388.5000 -100.0000 Du        
    903 ****       251.0000 388.7500 -101.7500 Du        
    904 ****       251.0000 388.7500 -101.5000 Du        
    905 ****       251.0000 388.7500 -101.2500 Du        
    906 ****       251.0000 388.7500 -101.0000 Du        
    907 ****       251.0000 388.7500 -100.7500 Du        
    908 ****       251.0000 388.7500 -100.5000 Du        
    909 ****       251.0000 388.7500 -100.2500 Du        
    910 ****       251.0000 388.7500 -100.0000 Du        
    911 ****       251.0000 388.7500 -99.7500 Du        
    912 ****       251.0000 389.0000 -101.7500 Du        
    913 ****       251.0000 389.0000 -101.5000 Du        
    914 ****       251.0000 389.0000 -101.2500 Du        
    915 ****       251.0000 389.0000 -101.0000 Du        
    916 ****       251.0000 389.0000 -100.7500 Du        
    917 ****       251.0000 389.0000 -100.5000 Du        
    918 ****       251.0000 389.0000 -100.2500 Du        
    919 ****       251.0000 389.0000 -100.0000 Du        
    920 ****       251.0000 389.0000 -99.7500 Du        
    921 ****       251.0000 389.0000 -99.5000 Du        
    922 ****       251.0000 389.0000 -99.2500 Du        
    923 ****       251.0000 389.2500 -101.7500 Du        
    924 ****       251.0000 389.2500 -101.5000 Du        
    925 ****       251.0000 389.2500 -101.2500 Du        
    926 ****       251.0000 389.2500 -101.0000 Du        
    927 ****       251.0000 389.2500 -100.7500 Du        
    928 ****       251.0000 389.2500 -100.5000 Du        
    929 ****       251.0000 389.2500 -100.2500 Du        
    930 ****       251.0000 389.2500 -100.0000 Du        
    931 ****       251.0000 389.2500 -99.7500 Du        
    932 ****       251.0000 389.2500 -99.5000 Du        
    933 ****       251.0000 389.2500 -99.2500 Du        
    934 ****       251.0000 389.2500 -99.0000 Du        
    935 ****       251.0000 389.2500 -98.7500 Du        
    936 ****       251.0000 389.5000 -101.7500 Du        
    937 ****       251.0000 389.5000 -101.5000 Du        
    938 ****       251.0000 389.5000 -101.2500 Du        
    939 ****       251.0000 389.5000 -101.0000 Du        
    940 ****       251.0000 389.5000 -100.7500 Du        
    941 ****       251.0000 389.5000 -100.5000 Du        
    942 ****       251.0000 389.5000 -100.2500 Du        
    943 ****       251.0000 389.5000 -100.0000 Du        
    944 ****       251.0000 389.5000 -99.7500 Du        
    945 ****       251.0000 389.5000 -99.5000 Du        
    946 ****       251.0000 389.5000 -99.2500 Du        
    947 ****       251.0000 389.5000 -99.0000 Du        
    948 ****       251.0000 389.5000 -98.7500 Du        
    949 ****       251.0000 389.5000 -98.5000 Du        
    950 ****       251.0000 389.5000 -98.2500 Du        
    951 ****       251.0000 389.5000 -98.0000 Du        
    952 ****       251.0000 389.5000 -97.7500 Du        
    953 ****       251.0000 389.5000 -97.5000 Du        
    954 ****       251.0000 389.5000 -97.2500 Du        
    955 ****       251.0000 389.7500 -101.7500 Du        
    956 ****       251.0000 389.7500 -101.5000 Du        
    957 ****       251.0000 389.7500 -101.2500 Du        
    958 ****       251.0000 389.7500 -101.0000 Du        
    959 ****       251.0000 389.7500 -100.7500 Du        
    960 ****       251.0000 389.7500 -100.5000 Du        
    961 ****       251.0000 389.7500 -100.2500 Du        
    962 ****       251.0000 389.7500 -100.0000 Du        
    963 ****       251.0000 389.7500 -99.7500 Du        
    964 ****       251.0000 389.7500 -99.5000 Du        
    965 ****       251.0000 389.7500 -99.2500 Du        
    966 ****       251.0000 389.7500 -99.0000 Du        
    967 ****       251.0000 389.7500 -98.2500 Du        
    968 ****       251.0000 389.7500 -98.0000 Du        
    969 ****       251.0000 389.7500 -97.7500 Du        
    970 ****       251.0000 389.7500 -97.5000 Du        
    971 ****       251.0000 389.7500 -97.2500 Du        
    972 ****       251.0000 390.0000 -101.7500 Du        
    973 ****       251.0000 390.0000 -101.5000 Du        
    974 ****       251.0000 390.0000 -101.2500 Du        
    975 ****       251.0000 390.0000 -101.0000 Du        
    976 ****       251.0000 390.0000 -100.7500 Du        
    977 ****       251.0000 390.0000 -100.5000 Du        
    978 ****       251.0000 390.0000 -100.2500 Du        
    979 ****       251.0000 390.0000 -100.0000 Du        
    980 ****       251.0000 390.0000 -97.5000 Du        
    981 ****       251.0000 390.2500 -101.7500 Du        
    982 ****       251.0000 390.2500 -101.5000 Du        
    983 ****       251.0000 390.2500 -101.2500 Du        
    984 ****       251.0000 390.2500 -101.0000 Du        
    985 ****       251.2500 388.2500 -100.7500 Du        
    986 ****       251.2500 388.2500 -100.5000 Du        
    987 ****       251.2500 388.5000 -101.2500 Du        
    988 ****       251.2500 388.5000 -101.0000 Du        
    989 ****       251.2500 388.5000 -100.7500 Du        
    990 ****       251.2500 388.5000 -100.5000 Du        
    991 ****       251.2500 388.5000 -100.2500 Du        
    992 ****       251.2500 388.7500 -101.7500 Du        
    993 ****       251.2500 388.7500 -101.5000 Du        
    994 ****       251.2500 388.7500 -101.2500 Du        
    995 ****       251.2500 388.7500 -101.0000 Du        
    996 ****       251.2500 388.7500 -100.7500 Du        
    997 ****       251.2500 388.7500 -100.5000 Du        
    998 ****       251.2500 388.7500 -100.2500 Du        
    999 ****       251.2500 388.7500 -100.0000 Du        
   1000 ****       251.2500 389.0000 -101.7500 Du        
   1001 ****       251.2500 389.0000 -101.5000 Du        
   1002 ****       251.2500 389.0000 -101.2500 Du        
   1003 ****       251.2500 389.0000 -101.0000 Du        
   1004 ****       251.2500 389.0000 -100.7500 Du        
   1005 ****       251.2500 389.0000 -100.5000 Du        
   1006 ****       251.2500 389.0000 -100.2500 Du        
   1007 ****       251.2500 389.0000 -100.0000 Du        
   1008 ****       251.2500 389.0000 -99.7500 Du        
   1009 ****       251.2500 389.0000 -99.5000 Du        
   1010 ****       251.2500 389.2500 -101.7500 Du        
   1011 ****       251.2500 389.2500 -101.5000 Du        
   1012 ****       251.2500 389.2500 -101.2500 Du        
   1013 ****       251.2500 389.2500 -101.0000 Du        
   1014 ****       251.2500 389.2500 -100.7500 Du        
   1015 ****       251.2500 389.2500 -100.5000 Du        
   1016 ****       251.2500 389.2500 -100.2500 Du        
   1017 ****       251.2500 389.2500 -100.0000 Du        
   1018 ****       251.2500 389.2500 -99.7500 Du        
   1019 ****       251.2500 389.2500 -99.5000 Du        
   1020 ****       251.2500 389.2500 -99.2500 Du        
   1021 ****       251.2500 389.5000 -101.7500 Du        
   1022 ****       251.2500 389.5000 -101.5000 Du        
   1023 ****       251.2500 389.5000 -101.2500 Du        
   1024 ****       251.2500 389.5000 -101.0000 Du        
   1025 ****       251.2500 389.5000 -100.7500 Du        
   1026 ****       251.2500 389.5000 -100.5000 Du        
   1027 ****       251.2500 389.5000 -100.2500 Du        
   1028 ****       251.2500 389.5000 -100.0000 Du        
   1029 ****       251.2500 389.5000 -99.7500 Du        
   1030 ****       251.2500 389.5000 -99.5000 Du        
   1031 ****       251.2500 389.5000 -99.2500 Du        
   1032 ****       251.2500 389.5000 -99.0000 Du        
   1033 ****       251.2500 389.5000 -98.7500 Du        
   1034 ****       251.2500 389.5000 -98.5000 Du        
   1035 ****       251.2500 389.5000 -98.2500 Du        
   1036 ****       251.2500 389.5000 -98.0000 Du        
   1037 ****       251.2500 389.5000 -97.7500 Du        
   1038 ****       251.2500 389.5000 -97.5000 Du        
   1039 ****       251.2500 389.5000 -97.2500 Du        
   1040 ****       251.2500 389.5000 -97.0000 Du        
   1041 ****       251.2500 389.7500 -101.7500 Du        
   1042 ****       251.2500 389.7500 -101.5000 Du        
   1043 ****       251.2500 389.7500 -101.2500 Du        
   1044 ****       251.2500 389.7500 -101.0000 Du        
   1045 ****       251.2500 389.7500 -100.7500 Du        
   1046 ****       251.2500 389.7500 -100.5000 Du        
   1047 ****       251.2500 389.7500 -100.2500 Du        
   1048 ****       251.2500 389.7500 -100.0000 Du        
   1049 ****       251.2500 389.7500 -99.7500 Du        
   1050 ****       251.2500 389.7500 -99.5000 Du        
   1051 ****       251.2500 389.7500 -99.2500 Du        
   1052 ****       251.2500 389.7500 -99.0000 Du        
   1053 ****       251.2500 389.7500 -98.7500 Du        
   1054 ****       251.2500 389.7500 -98.5000 Du        
   1055 ****       251.2500 389.7500 -98.2500 Du        
   1056 ****       251.2500 389.7500 -98.0000 Du        
   1057 ****       251.2500 389.7500 -97.7500 Du        
   1058 ****       251.2500 389.7500 -97.5000 Du        
   1059 ****       251.2500 389.7500 -97.2500 Du        
   1060 ****       251.2500 389.7500 -97.0000 Du        
   1061 ****       251.2500 390.0000 -102.0000 Du        
   1062 ****       251.2500 390.0000 -101.7500 Du        
   1063 ****       251.2500 390.0000 -101.5000 Du        
   1064 ****       251.2500 390.0000 -101.2500 Du        
   1065 ****       251.2500 390.0000 -101.0000 Du        
   1066 ****       251.2500 390.0000 -100.7500 Du        
   1067 ****       251.2500 390.0000 -100.5000 Du        
   1068 ****       251.2500 390.0000 -100.2500 Du        
   1069 ****       251.2500 390.0000 -100.0000 Du        
   1070 ****       251.2500 390.0000 -97.7500 Du        
   1071 ****       251.2500 390.0000 -97.5000 Du        
   1072 ****       251.2500 390.0000 -97.2500 Du        
   1073 ****       251.2500 390.2500 -102.0000 Du        
   1074 ****       251.2500 390.2500 -101.7500 Du        
   1075 ****       251.2500 390.2500 -101.5000 Du        
   1076 ****       251.2500 390.2500 -101.2500 Du        
   1077 ****       251.2500 390.2500 -101.0000 Du        
   1078 ****       251.2500 390.2500 -100.7500 Du        
   1079 ****       251.2500 390.5000 -102.0000 Du        
   1080 ****       251.2500 390.5000 -101.7500 Du        
   1081 ****       251.2500 390.5000 -101.5000 Du        
   1082 ****       251.2500 390.7500 -102.0000 Du        
   1083 ****       251.5000 388.5000 -101.2500 Du        
   1084 ****       251.5000 388.5000 -101.0000 Du        
   1085 ****       251.5000 388.5000 -100.7500 Du        
   1086 ****       251.5000 388.7500 -101.7500 Du        
   1087 ****       251.5000 388.7500 -101.5000 Du        
   1088 ****       251.5000 388.7500 -101.2500 Du        
   1089 ****       251.5000 388.7500 -101.0000 Du        
   1090 ****       251.5000 388.7500 -100.7500 Du        
   1091 ****       251.5000 388.7500 -100.5000 Du        
   1092 ****       251.5000 388.7500 -100.2500 Du        
   1093 ****       251.5000 389.0000 -101.7500 Du        
   1094 ****       251.5000 389.0000 -101.5000 Du        
   1095 ****       251.5000 389.0000 -101.2500 Du        
   1096 ****       251.5000 389.0000 -101.0000 Du        
   1097 ****       251.5000 389.0000 -100.7500 Du        
   1098 ****       251.5000 389.0000 -100.5000 Du        
   1099 ****       251.5000 389.0000 -100.2500 Du        
   1100 ****       251.5000 389.0000 -100.0000 Du        
   1101 ****       251.5000 389.0000 -99.7500 Du        
   1102 ****       251.5000 389.2500 -101.7500 Du        
   1103 ****       251.5000 389.2500 -101.5000 Du        
   1104 ****       251.5000 389.2500 -101.2500 Du        
   1105 ****       251.5000 389.2500 -101.0000 Du        
   1106 ****       251.5000 389.2500 -100.7500 Du        
   1107 ****       251.5000 389.2500 -100.5000 Du        
   1108 ****       251.5000 389.2500 -100.2500 Du        
   1109 ****       251.5000 389.2500 -100.0000 Du        
   1110 ****       251.5000 389.2500 -99.7500 Du        
   1111 ****       251.5000 389.5000 -101.7500 Du        
   1112 ****       251.5000 389.5000 -101.5000 Du        
   1113 ****       251.5000 389.5000 -101.2500 Du        
   1114 ****       251.5000 389.5000 -101.0000 Du        
   1115 ****       251.5000 389.5000 -100.7500 Du        
   1116 ****       251.5000 389.5000 -100.5000 Du        
   1117 ****       251.5000 389.5000 -100.2500 Du        
   1118 ****       251.5000 389.5000 -100.0000 Du        
   1119 ****       251.5000 389.5000 -99.7500 Du        
   1120 ****       251.5000 389.5000 -98.0000 Du        
   1121 ****       251.5000 389.5000 -97.7500 Du        
   1122 ****       251.5000 389.5000 -97.5000 Du        
   1123 ****       251.5000 389.5000 -97.2500 Du        
   1124 ****       251.5000 389.5000 -97.0000 Du        
   1125 ****       251.5000 389.7500 -102.0000 Du        
   1126 ****       251.5000 389.7500 -101.7500 Du        
   1127 ****       251.5000 389.7500 -101.5000 Du        
   1128 ****       251.5000 389.7500 -101.2500 Du        
   1129 ****       251.5000 389.7500 -101.0000 Du        
   1130 ****       251.5000 389.7500 -100.7500 Du        
   1131 ****       251.5000 389.7500 -100.5000 Du        
   1132 ****       251.5000 389.7500 -100.2500 Du        
   1133 ****       251.5000 389.7500 -100.0000 Du        
   1134 ****       251.5000 389.7500 -99.7500 Du        
   1135 ****       251.5000 389.7500 -99.5000 Du        
   1136 ****       251.5000 389.7500 -99.2500 Du        
   1137 ****       251.5000 389.7500 -99.0000 Du        
   1138 ****       251.5000 389.7500 -98.7500 Du        
   1139 ****       251.5000 389.7500 -98.5000 Du        
   1140 ****       251.5000 389.7500 -98.2500 Du        
   1141 ****       251.5000 389.7500 -98.0000 Du        
   1142 ****       251.5000 389.7500 -97.7500 Du        
   1143 ****       251.5000 389.7500 -97.5000 Du        
   1144 ****       251.5000 389.7500 -97.2500 Du        
   1145 ****       251.5000 389.7500 -97.0000 Du        
   1146 ****       251.5000 390.0000 -102.0000 Du        
   1147 ****       251.5000 390.0000 -101.7500 Du        
   1148 ****       251.5000 390.0000 -101.5000 Du        
   1149 ****       251.5000 390.0000 -101.2500 Du        
   1150 ****       251.5000 390.0000 -101.0000 Du        
   1151 ****       251.5000 390.0000 -100.7500 Du        
   1152 ****       251.5000 390.0000 -100.5000 Du        
   1153 ****       251.5000 390.0000 -100.2500 Du        
   1154 ****       251.5000 390.0000 -98.0000 Du        
   1155 ****       251.5000 390.0000 -97.7500 Du        
   1156 ****       251.5000 390.0000 -97.5000 Du        
   1157 ****       251.5000 390.0000 -97.2500 Du        
   1158 ****       251.5000 390.0000 -97.0000 Du        
   1159 ****       251.5000 390.2500 -102.0000 Du        
   1160 ****       251.5000 390.2500 -101.7500 Du        
   1161 ****       251.5000 390.2500 -101.5000 Du        
   1162 ****       251.5000 390.2500 -101.2500 Du        
   1163 ****       251.5000 390.2500 -101.0000 Du        
   1164 ****       251.5000 390.2500 -100.7500 Du        
   1165 ****       251.5000 390.2500 -97.2500 Du        
   1166 ****       251.5000 390.5000 -102.0000 Du        
   1167 ****       251.5000 390.5000 -101.7500 Du        
   1168 ****       251.5000 390.5000 -101.5000 Du        
   1169 ****       251.5000 390.7500 -102.2500 Du        
   1170 ****       251.5000 390.7500 -102.0000 Du        
   1171 ****       251.5000 390.7500 -101.7500 Du        
   1172 ****       251.5000 391.0000 -102.2500 Du        
   1173 ****       251.5000 391.2500 -102.7500 Du        
   1174 ****       251.7500 388.5000 -101.2500 Du        
   1175 ****       251.7500 388.5000 -101.0000 Du        
   1176 ****       251.7500 388.5000 -100.7500 Du        
   1177 ****       251.7500 388.7500 -102.0000 Du        
   1178 ****       251.7500 388.7500 -101.7500 Du        
   1179 ****       251.7500 388.7500 -101.5000 Du        
   1180 ****       251.7500 388.7500 -101.2500 Du        
   1181 ****       251.7500 388.7500 -101.0000 Du        
   1182 ****       251.7500 388.7500 -100.7500 Du        
   1183 ****       251.7500 388.7500 -100.5000 Du        
   1184 ****       251.7500 389.0000 -102.0000 Du        
   1185 ****       251.7500 389.0000 -101.7500 Du        
   1186 ****       251.7500 389.0000 -101.5000 Du        
   1187 ****       251.7500 389.0000 -101.2500 Du        
   1188 ****       251.7500 389.0000 -101.0000 Du        
   1189 ****       251.7500 389.0000 -100.7500 Du        
   1190 ****       251.7500 389.0000 -100.5000 Du        
   1191 ****       251.7500 389.0000 -100.2500 Du        
   1192 ****       251.7500 389.2500 -102.0000 Du        
   1193 ****       251.7500 389.2500 -101.7500 Du        
   1194 ****       251.7500 389.2500 -101.5000 Du        
   1195 ****       251.7500 389.2500 -101.2500 Du        
   1196 ****       251.7500 389.2500 -101.0000 Du        
   1197 ****       251.7500 389.2500 -100.7500 Du        
   1198 ****       251.7500 389.2500 -100.5000 Du        
   1199 ****       251.7500 389.2500 -100.2500 Du        
   1200 ****       251.7500 389.2500 -100.0000 Du        
   1201 ****       251.7500 389.5000 -102.0000 Du        
   1202 ****       251.7500 389.5000 -101.7500 Du        
   1203 ****       251.7500 389.5000 -101.5000 Du        
   1204 ****       251.7500 389.5000 -101.2500 Du        
   1205 ****       251.7500 389.5000 -101.0000 Du        
   1206 ****       251.7500 389.5000 -100.7500 Du        
   1207 ****       251.7500 389.5000 -100.5000 Du        
   1208 ****       251.7500 389.5000 -100.2500 Du        
   1209 ****       251.7500 389.5000 -100.0000 Du        
   1210 ****       251.7500 389.5000 -97.7500 Du        
   1211 ****       251.7500 389.5000 -97.5000 Du        
   1212 ****       251.7500 389.5000 -97.2500 Du        
   1213 ****       251.7500 389.5000 -97.0000 Du        
   1214 ****       251.7500 389.5000 -96.7500 Du        
   1215 ****       251.7500 389.7500 -102.0000 Du        
   1216 ****       251.7500 389.7500 -101.7500 Du        
   1217 ****       251.7500 389.7500 -101.5000 Du        
   1218 ****       251.7500 389.7500 -101.2500 Du        
   1219 ****       251.7500 389.7500 -101.0000 Du        
   1220 ****       251.7500 389.7500 -100.7500 Du        
   1221 ****       251.7500 389.7500 -100.5000 Du        
   1222 ****       251.7500 389.7500 -100.2500 Du        
   1223 ****       251.7500 389.7500 -100.0000 Du        
   1224 ****       251.7500 389.7500 -98.7500 Du        
   1225 ****       251.7500 389.7500 -98.2500 Du        
   1226 ****       251.7500 389.7500 -98.0000 Du        
   1227 ****       251.7500 389.7500 -97.7500 Du        
   1228 ****       251.7500 389.7500 -97.5000 Du        
   1229 ****       251.7500 389.7500 -97.2500 Du        
   1230 ****       251.7500 389.7500 -97.0000 Du        
   1231 ****       251.7500 389.7500 -96.7500 Du        
   1232 ****       251.7500 390.0000 -102.2500 Du        
   1233 ****       251.7500 390.0000 -102.0000 Du        
   1234 ****       251.7500 390.0000 -101.7500 Du        
   1235 ****       251.7500 390.0000 -101.5000 Du        
   1236 ****       251.7500 390.0000 -101.2500 Du        
   1237 ****       251.7500 390.0000 -101.0000 Du        
   1238 ****       251.7500 390.0000 -100.7500 Du        
   1239 ****       251.7500 390.0000 -100.5000 Du        
   1240 ****       251.7500 390.0000 -100.2500 Du        
   1241 ****       251.7500 390.0000 -100.0000 Du        
   1242 ****       251.7500 390.0000 -98.0000 Du        
   1243 ****       251.7500 390.0000 -97.7500 Du        
   1244 ****       251.7500 390.0000 -97.5000 Du        
   1245 ****       251.7500 390.0000 -97.2500 Du        
   1246 ****       251.7500 390.0000 -97.0000 Du        
   1247 ****       251.7500 390.0000 -96.7500 Du        
   1248 ****       251.7500 390.2500 -102.2500 Du        
   1249 ****       251.7500 390.2500 -102.0000 Du        
   1250 ****       251.7500 390.2500 -101.7500 Du        
   1251 ****       251.7500 390.2500 -101.5000 Du        
   1252 ****       251.7500 390.2500 -101.2500 Du        
   1253 ****       251.7500 390.2500 -101.0000 Du        
   1254 ****       251.7500 390.2500 -100.7500 Du        
   1255 ****       251.7500 390.2500 -97.5000 Du        
   1256 ****       251.7500 390.2500 -97.2500 Du        
   1257 ****       251.7500 390.2500 -97.0000 Du        
   1258 ****       251.7500 390.2500 -96.7500 Du        
   1259 ****       251.7500 390.5000 -102.2500 Du        
   1260 ****       251.7500 390.5000 -102.0000 Du        
   1261 ****       251.7500 390.5000 -101.7500 Du        
   1262 ****       251.7500 390.5000 -101.5000 Du        
   1263 ****       251.7500 390.5000 -101.2500 Du        
   1264 ****       251.7500 390.7500 -102.7500 Du        
   1265 ****       251.7500 390.7500 -102.5000 Du        
   1266 ****       251.7500 390.7500 -102.2500 Du        
   1267 ****       251.7500 390.7500 -102.0000 Du        
   1268 ****       251.7500 390.7500 -101.7500 Du        
   1269 ****       251.7500 391.0000 -103.0000 Du        
   1270 ****       251.7500 391.0000 -102.7500 Du        
   1271 ****       251.7500 391.0000 -102.5000 Du        
   1272 ****       251.7500 391.0000 -102.2500 Du        
   1273 ****       251.7500 391.0000 -102.0000 Du        
   1274 ****       251.7500 391.0000 -101.7500 Du        
   1275 ****       251.7500 391.2500 -103.2500 Du        
   1276 ****       251.7500 391.2500 -103.0000 Du        
   1277 ****       251.7500 391.2500 -102.7500 Du        
   1278 ****       251.7500 391.2500 -102.5000 Du        
   1279 ****       251.7500 391.2500 -102.2500 Du        
   1280 ****       251.7500 391.5000 -103.2500 Du        
   1281 ****       251.7500 391.5000 -103.0000 Du        
   1282 ****       251.7500 391.5000 -102.7500 Du        
   1283 ****       252.0000 388.5000 -101.5000 Du        
   1284 ****       252.0000 388.5000 -101.2500 Du        
   1285 ****       252.0000 388.5000 -101.0000 Du        
   1286 ****       252.0000 388.7500 -102.0000 Du        
   1287 ****       252.0000 388.7500 -101.7500 Du        
   1288 ****       252.0000 388.7500 -101.5000 Du        
   1289 ****       252.0000 388.7500 -101.2500 Du        
   1290 ****       252.0000 388.7500 -101.0000 Du        
   1291 ****       252.0000 388.7500 -100.7500 Du        
   1292 ****       252.0000 389.0000 -102.0000 Du        
   1293 ****       252.0000 389.0000 -101.7500 Du        
   1294 ****       252.0000 389.0000 -101.5000 Du        
   1295 ****       252.0000 389.0000 -101.2500 Du        
   1296 ****       252.0000 389.0000 -101.0000 Du        
   1297 ****       252.0000 389.0000 -100.7500 Du        
   1298 ****       252.0000 389.0000 -100.5000 Du        
   1299 ****       252.0000 389.2500 -102.2500 Du        
   1300 ****       252.0000 389.2500 -102.0000 Du        
   1301 ****       252.0000 389.2500 -101.7500 Du        
   1302 ****       252.0000 389.2500 -101.5000 Du        
   1303 ****       252.0000 389.2500 -101.2500 Du        
   1304 ****       252.0000 389.2500 -101.0000 Du        
   1305 ****       252.0000 389.2500 -100.7500 Du        
   1306 ****       252.0000 389.2500 -100.5000 Du        
   1307 ****       252.0000 389.2500 -100.2500 Du        
   1308 ****       252.0000 389.5000 -102.2500 Du        
   1309 ****       252.0000 389.5000 -102.0000 Du        
   1310 ****       252.0000 389.5000 -101.7500 Du        
   1311 ****       252.0000 389.5000 -101.5000 Du        
   1312 ****       252.0000 389.5000 -101.2500 Du        
   1313 ****       252.0000 389.5000 -101.0000 Du        
   1314 ****       252.0000 389.5000 -100.7500 Du        
   1315 ****       252.0000 389.5000 -100.5000 Du        
   1316 ****       252.0000 389.5000 -100.2500 Du        
   1317 ****       252.0000 389.5000 -100.0000 Du        
   1318 ****       252.0000 389.5000 -97.0000 Du        
   1319 ****       252.0000 389.5000 -96.7500 Du        
   1320 ****       252.0000 389.5000 -96.5000 Du        
   1321 ****       252.0000 389.7500 -102.2500 Du        
   1322 ****       252.0000 389.7500 -102.0000 Du        
   1323 ****       252.0000 389.7500 -101.7500 Du        
   1324 ****       252.0000 389.7500 -101.5000 Du        
   1325 ****       252.0000 389.7500 -101.2500 Du        
   1326 ****       252.0000 389.7500 -101.0000 Du        
   1327 ****       252.0000 389.7500 -100.7500 Du        
   1328 ****       252.0000 389.7500 -100.5000 Du        
   1329 ****       252.0000 389.7500 -100.2500 Du        
   1330 ****       252.0000 389.7500 -100.0000 Du        
   1331 ****       252.0000 389.7500 -98.0000 Du        
   1332 ****       252.0000 389.7500 -97.7500 Du        
   1333 ****       252.0000 389.7500 -97.5000 Du        
   1334 ****       252.0000 389.7500 -97.2500 Du        
   1335 ****       252.0000 389.7500 -97.0000 Du        
   1336 ****       252.0000 389.7500 -96.7500 Du        
   1337 ****       252.0000 389.7500 -96.5000 Du        
   1338 ****       252.0000 390.0000 -102.2500 Du        
   1339 ****       252.0000 390.0000 -102.0000 Du        
   1340 ****       252.0000 390.0000 -101.7500 Du        
   1341 ****       252.0000 390.0000 -101.5000 Du        
   1342 ****       252.0000 390.0000 -101.2500 Du        
   1343 ****       252.0000 390.0000 -101.0000 Du        
   1344 ****       252.0000 390.0000 -100.7500 Du        
   1345 ****       252.0000 390.0000 -100.5000 Du        
   1346 ****       252.0000 390.0000 -100.2500 Du        
   1347 ****       252.0000 390.0000 -97.7500 Du        
   1348 ****       252.0000 390.0000 -97.5000 Du        
   1349 ****       252.0000 390.0000 -97.2500 Du        
   1350 ****       252.0000 390.0000 -97.0000 Du        
   1351 ****       252.0000 390.0000 -96.7500 Du        
   1352 ****       252.0000 390.0000 -96.5000 Du        
   1353 ****       252.0000 390.2500 -102.5000 Du        
   1354 ****       252.0000 390.2500 -102.2500 Du        
   1355 ****       252.0000 390.2500 -102.0000 Du        
   1356 ****       252.0000 390.2500 -101.7500 Du        
   1357 ****       252.0000 390.2500 -101.5000 Du        
   1358 ****       252.0000 390.2500 -101.2500 Du        
   1359 ****       252.0000 390.2500 -101.0000 Du        
   1360 ****       252.0000 390.2500 -100.7500 Du        
   1361 ****       252.0000 390.2500 -97.5000 Du        
   1362 ****       252.0000 390.2500 -97.2500 Du        
   1363 ****       252.0000 390.2500 -97.0000 Du        
   1364 ****       252.0000 390.2500 -96.7500 Du        
   1365 ****       252.0000 390.5000 -102.7500 Du        
   1366 ****       252.0000 390.5000 -102.5000 Du        
   1367 ****       252.0000 390.5000 -102.2500 Du        
   1368 ****       252.0000 390.5000 -102.0000 Du        
   1369 ****       252.0000 390.5000 -101.7500 Du        
   1370 ****       252.0000 390.5000 -101.5000 Du        
   1371 ****       252.0000 390.5000 -101.2500 Du        
   1372 ****       252.0000 390.7500 -103.0000 Du        
   1373 ****       252.0000 390.7500 -102.7500 Du        
   1374 ****       252.0000 390.7500 -102.5000 Du        
   1375 ****       252.0000 390.7500 -102.2500 Du        
   1376 ****       252.0000 390.7500 -102.0000 Du        
   1377 ****       252.0000 390.7500 -101.7500 Du        
   1378 ****       252.0000 390.7500 -101.5000 Du        
   1379 ****       252.0000 391.0000 -103.2500 Du        
   1380 ****       252.0000 391.0000 -103.0000 Du        
   1381 ****       252.0000 391.0000 -102.7500 Du        
   1382 ****       252.0000 391.0000 -102.5000 Du        
   1383 ****       252.0000 391.0000 -102.2500 Du        
   1384 ****       252.0000 391.0000 -102.0000 Du        
   1385 ****       252.0000 391.0000 -101.7500 Du        
   1386 ****       252.0000 391.2500 -103.5000 Du        
   1387 ****       252.0000 391.2500 -103.2500 Du        
   1388 ****       252.0000 391.2500 -103.0000 Du        
   1389 ****       252.0000 391.2500 -102.7500 Du        
   1390 ****       252.0000 391.2500 -102.5000 Du        
   1391 ****       252.0000 391.2500 -102.2500 Du        
   1392 ****       252.0000 391.2500 -102.0000 Du        
   1393 ****       252.0000 391.5000 -103.7500 Du        
   1394 ****       252.0000 391.5000 -103.5000 Du        
   1395 ****       252.0000 391.5000 -103.2500 Du        
   1396 ****       252.0000 391.5000 -103.0000 Du        
   1397 ****       252.0000 391.5000 -102.7500 Du        
   1398 ****       252.0000 391.5000 -102.5000 Du        
   1399 ****       252.0000 391.5000 -102.2500 Du        
   1400 ****       252.0000 391.7500 -103.5000 Du        
   1401 ****       252.0000 391.7500 -103.2500 Du        
   1402 ****       252.0000 391.7500 -103.0000 Du        
   1403 ****       252.0000 391.7500 -102.7500 Du        
   1404 ****       252.2500 388.5000 -101.7500 Du        
   1405 ****       252.2500 388.5000 -101.5000 Du        
   1406 ****       252.2500 388.5000 -101.2500 Du        
   1407 ****       252.2500 388.7500 -102.0000 Du        
   1408 ****       252.2500 388.7500 -101.7500 Du        
   1409 ****       252.2500 388.7500 -101.5000 Du        
   1410 ****       252.2500 388.7500 -101.2500 Du        
   1411 ****       252.2500 388.7500 -101.0000 Du        
   1412 ****       252.2500 389.0000 -102.2500 Du        
   1413 ****       252.2500 389.0000 -102.0000 Du        
   1414 ****       252.2500 389.0000 -101.7500 Du        
   1415 ****       252.2500 389.0000 -101.5000 Du        
   1416 ****       252.2500 389.0000 -101.2500 Du        
   1417 ****       252.2500 389.0000 -101.0000 Du        
   1418 ****       252.2500 389.0000 -100.7500 Du        
   1419 ****       252.2500 389.2500 -102.2500 Du        
   1420 ****       252.2500 389.2500 -102.0000 Du        
   1421 ****       252.2500 389.2500 -101.7500 Du        
   1422 ****       252.2500 389.2500 -101.5000 Du        
   1423 ****       252.2500 389.2500 -101.2500 Du        
   1424 ****       252.2500 389.2500 -101.0000 Du        
   1425 ****       252.2500 389.2500 -100.7500 Du        
   1426 ****       252.2500 389.2500 -100.5000 Du        
   1427 ****       252.2500 389.5000 -102.2500 Du        
   1428 ****       252.2500 389.5000 -102.0000 Du        
   1429 ****       252.2500 389.5000 -101.7500 Du        
   1430 ****       252.2500 389.5000 -101.5000 Du        
   1431 ****       252.2500 389.5000 -101.2500 Du        
   1432 ****       252.2500 389.5000 -101.0000 Du        
   1433 ****       252.2500 389.5000 -100.7500 Du        
   1434 ****       252.2500 389.5000 -100.5000 Du        
   1435 ****       252.2500 389.5000 -96.7500 Du        
   1436 ****       252.2500 389.5000 -96.5000 Du        
   1437 ****       252.2500 389.5000 -96.2500 Du        
   1438 ****       252.2500 389.7500 -102.2500 Du        
   1439 ****       252.2500 389.7500 -102.0000 Du        
   1440 ****       252.2500 389.7500 -101.7500 Du        
   1441 ****       252.2500 389.7500 -101.5000 Du        
   1442 ****       252.2500 389.7500 -101.2500 Du        
   1443 ****       252.2500 389.7500 -101.0000 Du        
   1444 ****       252.2500 389.7500 -100.7500 Du        
   1445 ****       252.2500 389.7500 -100.5000 Du        
   1446 ****       252.2500 389.7500 -100.2500 Du        
   1447 ****       252.2500 389.7500 -97.5000 Du        
   1448 ****       252.2500 389.7500 -97.2500 Du        
   1449 ****       252.2500 389.7500 -97.0000 Du        
   1450 ****       252.2500 389.7500 -96.7500 Du        
   1451 ****       252.2500 389.7500 -96.5000 Du        
   1452 ****       252.2500 389.7500 -96.2500 Du        
   1453 ****       252.2500 390.0000 -102.5000 Du        
   1454 ****       252.2500 390.0000 -102.2500 Du        
   1455 ****       252.2500 390.0000 -102.0000 Du        
   1456 ****       252.2500 390.0000 -101.7500 Du        
   1457 ****       252.2500 390.0000 -101.5000 Du        
   1458 ****       252.2500 390.0000 -101.2500 Du        
   1459 ****       252.2500 390.0000 -101.0000 Du        
   1460 ****       252.2500 390.0000 -100.7500 Du        
   1461 ****       252.2500 390.0000 -100.5000 Du        
   1462 ****       252.2500 390.0000 -97.7500 Du        
   1463 ****       252.2500 390.0000 -97.5000 Du        
   1464 ****       252.2500 390.0000 -97.2500 Du        
   1465 ****       252.2500 390.0000 -97.0000 Du        
   1466 ****       252.2500 390.0000 -96.7500 Du        
   1467 ****       252.2500 390.0000 -96.5000 Du        
   1468 ****       252.2500 390.2500 -102.5000 Du        
   1469 ****       252.2500 390.2500 -102.2500 Du        
   1470 ****       252.2500 390.2500 -102.0000 Du        
   1471 ****       252.2500 390.2500 -101.7500 Du        
   1472 ****       252.2500 390.2500 -101.5000 Du        
   1473 ****       252.2500 390.2500 -101.2500 Du        
   1474 ****       252.2500 390.2500 -101.0000 Du        
   1475 ****       252.2500 390.2500 -100.7500 Du        
   1476 ****       252.2500 390.2500 -97.5000 Du        
   1477 ****       252.2500 390.2500 -97.2500 Du        
   1478 ****       252.2500 390.2500 -97.0000 Du        
   1479 ****       252.2500 390.2500 -96.7500 Du        
   1480 ****       252.2500 390.2500 -96.5000 Du        
   1481 ****       252.2500 390.5000 -103.0000 Du        
   1482 ****       252.2500 390.5000 -102.7500 Du        
   1483 ****       252.2500 390.5000 -102.5000 Du        
   1484 ****       252.2500 390.5000 -102.2500 Du        
   1485 ****       252.2500 390.5000 -102.0000 Du        
   1486 ****       252.2500 390.5000 -101.7500 Du        
   1487 ****       252.2500 390.5000 -101.5000 Du        
   1488 ****       252.2500 390.5000 -101.2500 Du        
   1489 ****       252.2500 390.5000 -97.0000 Du        
   1490 ****       252.2500 390.5000 -96.7500 Du        
   1491 ****       252.2500 390.5000 -96.5000 Du        
   1492 ****       252.2500 390.7500 -103.2500 Du        
   1493 ****       252.2500 390.7500 -103.0000 Du        
   1494 ****       252.2500 390.7500 -102.7500 Du        
   1495 ****       252.2500 390.7500 -102.5000 Du        
   1496 ****       252.2500 390.7500 -102.2500 Du        
   1497 ****       252.2500 390.7500 -102.0000 Du        
   1498 ****       252.2500 390.7500 -101.7500 Du        
   1499 ****       252.2500 390.7500 -101.5000 Du        
   1500 ****       252.2500 390.7500 -96.7500 Du        
   1501 ****       252.2500 391.0000 -103.7500 Du        
   1502 ****       252.2500 391.0000 -103.5000 Du        
   1503 ****       252.2500 391.0000 -103.2500 Du        
   1504 ****       252.2500 391.0000 -103.0000 Du        
   1505 ****       252.2500 391.0000 -102.7500 Du        
   1506 ****       252.2500 391.0000 -102.5000 Du        
   1507 ****       252.2500 391.0000 -102.2500 Du        
   1508 ****       252.2500 391.0000 -102.0000 Du        
   1509 ****       252.2500 391.0000 -101.7500 Du        
   1510 ****       252.2500 391.0000 -101.5000 Du        
   1511 ****       252.2500 391.2500 -104.0000 Du        
   1512 ****       252.2500 391.2500 -103.7500 Du        
   1513 ****       252.2500 391.2500 -103.5000 Du        
   1514 ****       252.2500 391.2500 -103.2500 Du        
   1515 ****       252.2500 391.2500 -103.0000 Du        
   1516 ****       252.2500 391.2500 -102.7500 Du        
   1517 ****       252.2500 391.2500 -102.5000 Du        
   1518 ****       252.2500 391.2500 -102.2500 Du        
   1519 ****       252.2500 391.2500 -102.0000 Du        
   1520 ****       252.2500 391.2500 -101.7500 Du        
   1521 ****       252.2500 391.5000 -104.0000 Du        
   1522 ****       252.2500 391.5000 -103.7500 Du        
   1523 ****       252.2500 391.5000 -103.5000 Du        
   1524 ****       252.2500 391.5000 -103.2500 Du        
   1525 ****       252.2500 391.5000 -103.0000 Du        
   1526 ****       252.2500 391.5000 -102.7500 Du        
   1527 ****       252.2500 391.5000 -102.5000 Du        
   1528 ****       252.2500 391.5000 -102.2500 Du        
   1529 ****       252.2500 391.5000 -102.0000 Du        
   1530 ****       252.2500 391.7500 -103.7500 Du        
   1531 ****       252.2500 391.7500 -103.5000 Du        
   1532 ****       252.2500 391.7500 -103.2500 Du        
   1533 ****       252.2500 391.7500 -103.0000 Du        
   1534 ****       252.2500 391.7500 -102.7500 Du        
   1535 ****       252.2500 391.7500 -102.5000 Du        
   1536 ****       252.5000 388.5000 -101.7500 Du        
   1537 ****       252.5000 388.7500 -102.2500 Du        
   1538 ****       252.5000 388.7500 -102.0000 Du        
   1539 ****       252.5000 388.7500 -101.7500 Du        
   1540 ****       252.5000 388.7500 -101.5000 Du        
   1541 ****       252.5000 388.7500 -101.2500 Du        
   1542 ****       252.5000 389.0000 -102.2500 Du        
   1543 ****       252.5000 389.0000 -102.0000 Du        
   1544 ****       252.5000 389.0000 -101.7500 Du        
   1545 ****       252.5000 389.0000 -101.5000 Du        
   1546 ****       252.5000 389.0000 -101.2500 Du        
   1547 ****       252.5000 389.0000 -101.0000 Du        
   1548 ****       252.5000 389.0000 -100.7500 Du        
   1549 ****       252.5000 389.2500 -102.2500 Du        
   1550 ****       252.5000 389.2500 -102.0000 Du        
   1551 ****       252.5000 389.2500 -101.7500 Du        
   1552 ****       252.5000 389.2500 -101.5000 Du        
   1553 ****       252.5000 389.2500 -101.2500 Du        
   1554 ****       252.5000 389.2500 -101.0000 Du        
   1555 ****       252.5000 389.2500 -100.7500 Du        
   1556 ****       252.5000 389.5000 -102.2500 Du        
   1557 ****       252.5000 389.5000 -102.0000 Du        
   1558 ****       252.5000 389.5000 -101.7500 Du        
   1559 ****       252.5000 389.5000 -101.5000 Du        
   1560 ****       252.5000 389.5000 -101.2500 Du        
   1561 ****       252.5000 389.5000 -101.0000 Du        
   1562 ****       252.5000 389.5000 -100.7500 Du        
   1563 ****       252.5000 389.7500 -102.2500 Du        
   1564 ****       252.5000 389.7500 -102.0000 Du        
   1565 ****       252.5000 389.7500 -101.7500 Du        
   1566 ****       252.5000 389.7500 -101.5000 Du        
   1567 ****       252.5000 389.7500 -101.2500 Du        
   1568 ****       252.5000 389.7500 -101.0000 Du        
   1569 ****       252.5000 389.7500 -100.7500 Du        
   1570 ****       252.5000 389.7500 -97.5000 Du        
   1571 ****       252.5000 389.7500 -97.2500 Du        
   1572 ****       252.5000 389.7500 -97.0000 Du        
   1573 ****       252.5000 389.7500 -96.7500 Du        
   1574 ****       252.5000 389.7500 -96.5000 Du        
   1575 ****       252.5000 389.7500 -96.2500 Du        
   1576 ****       252.5000 390.0000 -102.7500 Du        
   1577 ****       252.5000 390.0000 -102.5000 Du        
   1578 ****       252.5000 390.0000 -102.2500 Du        
   1579 ****       252.5000 390.0000 -102.0000 Du        
   1580 ****       252.5000 390.0000 -101.7500 Du        
   1581 ****       252.5000 390.0000 -101.5000 Du        
   1582 ****       252.5000 390.0000 -101.2500 Du        
   1583 ****       252.5000 390.0000 -101.0000 Du        
   1584 ****       252.5000 390.0000 -100.7500 Du        
   1585 ****       252.5000 390.0000 -97.5000 Du        
   1586 ****       252.5000 390.0000 -97.2500 Du        
   1587 ****       252.5000 390.0000 -97.0000 Du        
   1588 ****       252.5000 390.0000 -96.7500 Du        
   1589 ****       252.5000 390.0000 -96.5000 Du        
   1590 ****       252.5000 390.0000 -96.2500 Du        
   1591 ****       252.5000 390.2500 -102.7500 Du        
   1592 ****       252.5000 390.2500 -102.5000 Du        
   1593 ****       252.5000 390.2500 -102.2500 Du        
   1594 ****       252.5000 390.2500 -102.0000 Du        
   1595 ****       252.5000 390.2500 -101.7500 Du        
   1596 ****       252.5000 390.2500 -101.5000 Du        
   1597 ****       252.5000 390.2500 -101.2500 Du        
   1598 ****       252.5000 390.2500 -101.0000 Du        
   1599 ****       252.5000 390.2500 -100.7500 Du        
   1600 ****       252.5000 390.2500 -97.2500 Du        
   1601 ****       252.5000 390.2500 -97.0000 Du        
   1602 ****       252.5000 390.2500 -96.7500 Du        
   1603 ****       252.5000 390.2500 -96.5000 Du        
   1604 ****       252.5000 390.5000 -103.0000 Du        
   1605 ****       252.5000 390.5000 -102.7500 Du        
   1606 ****       252.5000 390.5000 -102.5000 Du        
   1607 ****       252.5000 390.5000 -102.2500 Du        
   1608 ****       252.5000 390.5000 -102.0000 Du        
   1609 ****       252.5000 390.5000 -101.7500 Du        
   1610 ****       252.5000 390.5000 -101.5000 Du        
   1611 ****       252.5000 390.5000 -101.2500 Du        
   1612 ****       252.5000 390.5000 -97.0000 Du        
   1613 ****       252.5000 390.5000 -96.7500 Du        
   1614 ****       252.5000 390.5000 -96.5000 Du        
   1615 ****       252.5000 390.5000 -96.2500 Du        
   1616 ****       252.5000 390.7500 -103.7500 Du        
   1617 ****       252.5000 390.7500 -103.5000 Du        
   1618 ****       252.5000 390.7500 -103.2500 Du        
   1619 ****       252.5000 390.7500 -103.0000 Du        
   1620 ****       252.5000 390.7500 -102.7500 Du        
   1621 ****       252.5000 390.7500 -102.5000 Du        
   1622 ****       252.5000 390.7500 -102.2500 Du        
   1623 ****       252.5000 390.7500 -102.0000 Du        
   1624 ****       252.5000 390.7500 -101.7500 Du        
   1625 ****       252.5000 390.7500 -101.5000 Du        
   1626 ****       252.5000 390.7500 -101.2500 Du        
   1627 ****       252.5000 390.7500 -96.7500 Du        
   1628 ****       252.5000 390.7500 -96.5000 Du        
   1629 ****       252.5000 390.7500 -96.2500 Du        
   1630 ****       252.5000 391.0000 -104.2500 Du        
   1631 ****       252.5000 391.0000 -104.0000 Du        
   1632 ****       252.5000 391.0000 -103.7500 Du        
   1633 ****       252.5000 391.0000 -103.5000 Du        
   1634 ****       252.5000 391.0000 -103.2500 Du        
   1635 ****       252.5000 391.0000 -103.0000 Du        
   1636 ****       252.5000 391.0000 -102.7500 Du        
   1637 ****       252.5000 391.0000 -102.5000 Du        
   1638 ****       252.5000 391.0000 -102.2500 Du        
   1639 ****       252.5000 391.0000 -102.0000 Du        
   1640 ****       252.5000 391.0000 -101.7500 Du        
   1641 ****       252.5000 391.0000 -101.5000 Du        
   1642 ****       252.5000 391.0000 -96.5000 Du        
   1643 ****       252.5000 391.0000 -96.2500 Du        
   1644 ****       252.5000 391.2500 -104.2500 Du        
   1645 ****       252.5000 391.2500 -104.0000 Du        
   1646 ****       252.5000 391.2500 -103.7500 Du        
   1647 ****       252.5000 391.2500 -103.5000 Du        
   1648 ****       252.5000 391.2500 -103.2500 Du        
   1649 ****       252.5000 391.2500 -103.0000 Du        
   1650 ****       252.5000 391.2500 -102.7500 Du        
   1651 ****       252.5000 391.2500 -102.5000 Du        
   1652 ****       252.5000 391.2500 -102.2500 Du        
   1653 ****       252.5000 391.2500 -102.0000 Du        
   1654 ****       252.5000 391.2500 -101.7500 Du        
   1655 ****       252.5000 391.2500 -96.2500 Du        
   1656 ****       252.5000 391.5000 -104.2500 Du        
   1657 ****       252.5000 391.5000 -104.0000 Du        
   1658 ****       252.5000 391.5000 -103.7500 Du        
   1659 ****       252.5000 391.5000 -103.5000 Du        
   1660 ****       252.5000 391.5000 -103.2500 Du        
   1661 ****       252.5000 391.5000 -103.0000 Du        
   1662 ****       252.5000 391.5000 -102.7500 Du        
   1663 ****       252.5000 391.5000 -102.5000 Du        
   1664 ****       252.5000 391.5000 -102.2500 Du        
   1665 ****       252.5000 391.5000 -102.0000 Du        
   1666 ****       252.5000 391.5000 -101.7500 Du        
   1667 ****       252.5000 391.7500 -104.2500 Du        
   1668 ****       252.5000 391.7500 -104.0000 Du        
   1669 ****       252.5000 391.7500 -103.7500 Du        
   1670 ****       252.5000 391.7500 -103.5000 Du        
   1671 ****       252.5000 391.7500 -103.2500 Du        
   1672 ****       252.5000 391.7500 -103.0000 Du        
   1673 ****       252.5000 391.7500 -102.7500 Du        
   1674 ****       252.5000 391.7500 -102.5000 Du        
   1675 ****       252.5000 391.7500 -102.2500 Du        
   1676 ****       252.5000 392.0000 -104.0000 Du        
   1677 ****       252.5000 392.0000 -103.7500 Du        
   1678 ****       252.5000 392.0000 -103.5000 Du        
   1679 ****       252.7500 388.5000 -102.0000 Du        
   1680 ****       252.7500 388.5000 -101.7500 Du        
   1681 ****       252.7500 388.7500 -102.2500 Du        
   1682 ****       252.7500 388.7500 -102.0000 Du        
   1683 ****       252.7500 388.7500 -101.7500 Du        
   1684 ****       252.7500 388.7500 -101.5000 Du        
   1685 ****       252.7500 388.7500 -101.2500 Du        
   1686 ****       252.7500 389.0000 -102.5000 Du        
   1687 ****       252.7500 389.0000 -102.2500 Du        
   1688 ****       252.7500 389.0000 -102.0000 Du        
   1689 ****       252.7500 389.0000 -101.7500 Du        
   1690 ****       252.7500 389.0000 -101.5000 Du        
   1691 ****       252.7500 389.0000 -101.2500 Du        
   1692 ****       252.7500 389.0000 -101.0000 Du        
   1693 ****       252.7500 389.2500 -102.5000 Du        
   1694 ****       252.7500 389.2500 -102.2500 Du        
   1695 ****       252.7500 389.2500 -102.0000 Du        
   1696 ****       252.7500 389.2500 -101.7500 Du        
   1697 ****       252.7500 389.2500 -101.5000 Du        
   1698 ****       252.7500 389.2500 -101.2500 Du        
   1699 ****       252.7500 389.2500 -101.0000 Du        
   1700 ****       252.7500 389.2500 -100.7500 Du        
   1701 ****       252.7500 389.5000 -102.2500 Du        
   1702 ****       252.7500 389.5000 -102.0000 Du        
   1703 ****       252.7500 389.5000 -101.7500 Du        
   1704 ****       252.7500 389.5000 -101.5000 Du        
   1705 ****       252.7500 389.5000 -101.2500 Du        
   1706 ****       252.7500 389.5000 -101.0000 Du        
   1707 ****       252.7500 389.5000 -100.7500 Du        
   1708 ****       252.7500 389.7500 -102.7500 Du        
   1709 ****       252.7500 389.7500 -102.2500 Du        
   1710 ****       252.7500 389.7500 -102.0000 Du        
   1711 ****       252.7500 389.7500 -101.7500 Du        
   1712 ****       252.7500 389.7500 -101.5000 Du        
   1713 ****       252.7500 389.7500 -101.2500 Du        
   1714 ****       252.7500 389.7500 -101.0000 Du        
   1715 ****       252.7500 389.7500 -100.7500 Du        
   1716 ****       252.7500 389.7500 -97.0000 Du        
   1717 ****       252.7500 389.7500 -96.7500 Du        
   1718 ****       252.7500 389.7500 -96.5000 Du        
   1719 ****       252.7500 389.7500 -96.2500 Du        
   1720 ****       252.7500 390.0000 -102.7500 Du        
   1721 ****       252.7500 390.0000 -102.5000 Du        
   1722 ****       252.7500 390.0000 -102.2500 Du        
   1723 ****       252.7500 390.0000 -102.0000 Du        
   1724 ****       252.7500 390.0000 -101.7500 Du        
   1725 ****       252.7500 390.0000 -101.5000 Du        
   1726 ****       252.7500 390.0000 -101.2500 Du        
   1727 ****       252.7500 390.0000 -101.0000 Du        
   1728 ****       252.7500 390.0000 -100.7500 Du        
   1729 ****       252.7500 390.0000 -97.2500 Du        
   1730 ****       252.7500 390.0000 -97.0000 Du        
   1731 ****       252.7500 390.0000 -96.7500 Du        
   1732 ****       252.7500 390.0000 -96.5000 Du        
   1733 ****       252.7500 390.0000 -96.2500 Du        
   1734 ****       252.7500 390.2500 -103.0000 Du        
   1735 ****       252.7500 390.2500 -102.7500 Du        
   1736 ****       252.7500 390.2500 -102.5000 Du        
   1737 ****       252.7500 390.2500 -102.2500 Du        
   1738 ****       252.7500 390.2500 -102.0000 Du        
   1739 ****       252.7500 390.2500 -101.7500 Du        
   1740 ****       252.7500 390.2500 -101.5000 Du        
   1741 ****       252.7500 390.2500 -101.2500 Du        
   1742 ****       252.7500 390.2500 -101.0000 Du        
   1743 ****       252.7500 390.2500 -100.7500 Du        
   1744 ****       252.7500 390.2500 -97.2500 Du        
   1745 ****       252.7500 390.2500 -97.0000 Du        
   1746 ****       252.7500 390.2500 -96.7500 Du        
   1747 ****       252.7500 390.2500 -96.5000 Du        
   1748 ****       252.7500 390.2500 -96.2500 Du        
   1749 ****       252.7500 390.5000 -103.2500 Du        
   1750 ****       252.7500 390.5000 -103.0000 Du        
   1751 ****       252.7500 390.5000 -102.7500 Du        
   1752 ****       252.7500 390.5000 -102.5000 Du        
   1753 ****       252.7500 390.5000 -102.2500 Du        
   1754 ****       252.7500 390.5000 -102.0000 Du        
   1755 ****       252.7500 390.5000 -101.7500 Du        
   1756 ****       252.7500 390.5000 -101.5000 Du        
   1757 ****       252.7500 390.5000 -101.2500 Du        
   1758 ****       252.7500 390.5000 -97.0000 Du        
   1759 ****       252.7500 390.5000 -96.7500 Du        
   1760 ****       252.7500 390.5000 -96.5000 Du        
   1761 ****       252.7500 390.5000 -96.2500 Du        
   1762 ****       252.7500 390.5000 -96.0000 Du        
   1763 ****       252.7500 390.7500 -104.0000 Du        
   1764 ****       252.7500 390.7500 -103.7500 Du        
   1765 ****       252.7500 390.7500 -103.5000 Du        
   1766 ****       252.7500 390.7500 -103.2500 Du        
   1767 ****       252.7500 390.7500 -103.0000 Du        
   1768 ****       252.7500 390.7500 -102.7500 Du        
   1769 ****       252.7500 390.7500 -102.5000 Du        
   1770 ****       252.7500 390.7500 -102.2500 Du        
   1771 ****       252.7500 390.7500 -102.0000 Du        
   1772 ****       252.7500 390.7500 -101.7500 Du        
   1773 ****       252.7500 390.7500 -101.5000 Du        
   1774 ****       252.7500 390.7500 -101.2500 Du        
   1775 ****       252.7500 390.7500 -96.7500 Du        
   1776 ****       252.7500 390.7500 -96.5000 Du        
   1777 ****       252.7500 390.7500 -96.2500 Du        
   1778 ****       252.7500 390.7500 -96.0000 Du        
   1779 ****       252.7500 391.0000 -104.5000 Du        
   1780 ****       252.7500 391.0000 -104.2500 Du        
   1781 ****       252.7500 391.0000 -104.0000 Du        
   1782 ****       252.7500 391.0000 -103.7500 Du        
   1783 ****       252.7500 391.0000 -103.5000 Du        
   1784 ****       252.7500 391.0000 -103.2500 Du        
   1785 ****       252.7500 391.0000 -103.0000 Du        
   1786 ****       252.7500 391.0000 -102.7500 Du        
   1787 ****       252.7500 391.0000 -102.5000 Du        
   1788 ****       252.7500 391.0000 -102.2500 Du        
   1789 ****       252.7500 391.0000 -102.0000 Du        
   1790 ****       252.7500 391.0000 -101.7500 Du        
   1791 ****       252.7500 391.0000 -101.5000 Du        
   1792 ****       252.7500 391.0000 -101.2500 Du        
   1793 ****       252.7500 391.0000 -96.5000 Du        
   1794 ****       252.7500 391.0000 -96.2500 Du        
   1795 ****       252.7500 391.0000 -96.0000 Du        
   1796 ****       252.7500 391.2500 -104.5000 Du        
   1797 ****       252.7500 391.2500 -104.2500 Du        
   1798 ****       252.7500 391.2500 -104.0000 Du        
   1799 ****       252.7500 391.2500 -103.7500 Du        
   1800 ****       252.7500 391.2500 -103.5000 Du        
   1801 ****       252.7500 391.2500 -103.2500 Du        
   1802 ****       252.7500 391.2500 -103.0000 Du        
   1803 ****       252.7500 391.2500 -102.7500 Du        
   1804 ****       252.7500 391.2500 -102.5000 Du        
   1805 ****       252.7500 391.2500 -102.2500 Du        
   1806 ****       252.7500 391.2500 -102.0000 Du        
   1807 ****       252.7500 391.2500 -101.7500 Du        
   1808 ****       252.7500 391.2500 -101.5000 Du        
   1809 ****       252.7500 391.2500 -96.2500 Du        
   1810 ****       252.7500 391.2500 -96.0000 Du        
   1811 ****       252.7500 391.2500 -95.7500 Du        
   1812 ****       252.7500 391.5000 -104.5000 Du        
   1813 ****       252.7500 391.5000 -104.2500 Du        
   1814 ****       252.7500 391.5000 -104.0000 Du        
   1815 ****       252.7500 391.5000 -103.7500 Du        
   1816 ****       252.7500 391.5000 -103.5000 Du        
   1817 ****       252.7500 391.5000 -103.2500 Du        
   1818 ****       252.7500 391.5000 -103.0000 Du        
   1819 ****       252.7500 391.5000 -102.7500 Du        
   1820 ****       252.7500 391.5000 -102.5000 Du        
   1821 ****       252.7500 391.5000 -102.2500 Du        
   1822 ****       252.7500 391.5000 -102.0000 Du        
   1823 ****       252.7500 391.5000 -101.7500 Du        
   1824 ****       252.7500 391.5000 -96.2500 Du        
   1825 ****       252.7500 391.5000 -96.0000 Du        
   1826 ****       252.7500 391.5000 -95.7500 Du        
   1827 ****       252.7500 391.7500 -104.5000 Du        
   1828 ****       252.7500 391.7500 -104.2500 Du        
   1829 ****       252.7500 391.7500 -104.0000 Du        
   1830 ****       252.7500 391.7500 -103.7500 Du        
   1831 ****       252.7500 391.7500 -103.5000 Du        
   1832 ****       252.7500 391.7500 -103.2500 Du        
   1833 ****       252.7500 391.7500 -103.0000 Du        
   1834 ****       252.7500 391.7500 -102.7500 Du        
   1835 ****       252.7500 391.7500 -102.5000 Du        
   1836 ****       252.7500 391.7500 -102.2500 Du        
   1837 ****       252.7500 391.7500 -102.0000 Du        
   1838 ****       252.7500 391.7500 -96.0000 Du        
   1839 ****       252.7500 391.7500 -95.7500 Du        
   1840 ****       252.7500 392.0000 -104.2500 Du        
   1841 ****       252.7500 392.0000 -104.0000 Du        
   1842 ****       252.7500 392.0000 -103.7500 Du        
   1843 ****       252.7500 392.0000 -103.5000 Du        
   1844 ****       252.7500 392.0000 -103.2500 Du        
   1845 ****       252.7500 392.0000 -103.0000 Du        
   1846 ****       252.7500 392.0000 -95.7500 Du        
   1847 ****       252.7500 392.2500 -104.0000 Du        
   1848 ****       253.0000 388.5000 -102.2500 Du        
   1849 ****       253.0000 388.5000 -102.0000 Du        
   1850 ****       253.0000 388.5000 -101.7500 Du        
   1851 ****       253.0000 388.7500 -102.5000 Du        
   1852 ****       253.0000 388.7500 -102.2500 Du        
   1853 ****       253.0000 388.7500 -102.0000 Du        
   1854 ****       253.0000 388.7500 -101.7500 Du        
   1855 ****       253.0000 388.7500 -101.5000 Du        
   1856 ****       253.0000 389.0000 -102.5000 Du        
   1857 ****       253.0000 389.0000 -102.2500 Du        
   1858 ****       253.0000 389.0000 -102.0000 Du        
   1859 ****       253.0000 389.0000 -101.7500 Du        
   1860 ****       253.0000 389.0000 -101.5000 Du        
   1861 ****       253.0000 389.0000 -101.2500 Du        
   1862 ****       253.0000 389.0000 -101.0000 Du        
   1863 ****       253.0000 389.2500 -102.5000 Du        
   1864 ****       253.0000 389.2500 -102.2500 Du        
   1865 ****       253.0000 389.2500 -102.0000 Du        
   1866 ****       253.0000 389.2500 -101.7500 Du        
   1867 ****       253.0000 389.2500 -101.5000 Du        
   1868 ****       253.0000 389.2500 -101.2500 Du        
   1869 ****       253.0000 389.2500 -101.0000 Du        
   1870 ****       253.0000 389.5000 -102.7500 Du        
   1871 ****       253.0000 389.5000 -102.2500 Du        
   1872 ****       253.0000 389.5000 -102.0000 Du        
   1873 ****       253.0000 389.5000 -101.7500 Du        
   1874 ****       253.0000 389.5000 -101.5000 Du        
   1875 ****       253.0000 389.5000 -101.2500 Du        
   1876 ****       253.0000 389.5000 -101.0000 Du        
   1877 ****       253.0000 389.5000 -100.7500 Du        
   1878 ****       253.0000 389.7500 -102.7500 Du        
   1879 ****       253.0000 389.7500 -102.2500 Du        
   1880 ****       253.0000 389.7500 -102.0000 Du        
   1881 ****       253.0000 389.7500 -101.7500 Du        
   1882 ****       253.0000 389.7500 -101.5000 Du        
   1883 ****       253.0000 389.7500 -101.2500 Du        
   1884 ****       253.0000 389.7500 -101.0000 Du        
   1885 ****       253.0000 389.7500 -100.7500 Du        
   1886 ****       253.0000 389.7500 -96.7500 Du        
   1887 ****       253.0000 390.0000 -103.0000 Du        
   1888 ****       253.0000 390.0000 -102.7500 Du        
   1889 ****       253.0000 390.0000 -102.5000 Du        
   1890 ****       253.0000 390.0000 -102.2500 Du        
   1891 ****       253.0000 390.0000 -102.0000 Du        
   1892 ****       253.0000 390.0000 -101.7500 Du        
   1893 ****       253.0000 390.0000 -101.5000 Du        
   1894 ****       253.0000 390.0000 -101.2500 Du        
   1895 ****       253.0000 390.0000 -101.0000 Du        
   1896 ****       253.0000 390.0000 -100.7500 Du        
   1897 ****       253.0000 390.0000 -97.5000 Du        
   1898 ****       253.0000 390.0000 -97.2500 Du        
   1899 ****       253.0000 390.0000 -97.0000 Du        
   1900 ****       253.0000 390.0000 -96.7500 Du        
   1901 ****       253.0000 390.0000 -96.5000 Du        
   1902 ****       253.0000 390.0000 -96.2500 Du        
   1903 ****       253.0000 390.0000 -96.0000 Du        
   1904 ****       253.0000 390.2500 -103.2500 Du        
   1905 ****       253.0000 390.2500 -103.0000 Du        
   1906 ****       253.0000 390.2500 -102.7500 Du        
   1907 ****       253.0000 390.2500 -102.5000 Du        
   1908 ****       253.0000 390.2500 -102.2500 Du        
   1909 ****       253.0000 390.2500 -102.0000 Du        
   1910 ****       253.0000 390.2500 -101.7500 Du        
   1911 ****       253.0000 390.2500 -101.5000 Du        
   1912 ****       253.0000 390.2500 -101.2500 Du        
   1913 ****       253.0000 390.2500 -101.0000 Du        
   1914 ****       253.0000 390.2500 -100.7500 Du        
   1915 ****       253.0000 390.2500 -97.2500 Du        
   1916 ****       253.0000 390.2500 -97.0000 Du        
   1917 ****       253.0000 390.2500 -96.7500 Du        
   1918 ****       253.0000 390.2500 -96.5000 Du        
   1919 ****       253.0000 390.2500 -96.2500 Du        
   1920 ****       253.0000 390.5000 -103.7500 Du        
   1921 ****       253.0000 390.5000 -103.5000 Du        
   1922 ****       253.0000 390.5000 -103.2500 Du        
   1923 ****       253.0000 390.5000 -103.0000 Du        
   1924 ****       253.0000 390.5000 -102.7500 Du        
   1925 ****       253.0000 390.5000 -102.5000 Du        
   1926 ****       253.0000 390.5000 -102.2500 Du        
   1927 ****       253.0000 390.5000 -102.0000 Du        
   1928 ****       253.0000 390.5000 -101.7500 Du        
   1929 ****       253.0000 390.5000 -101.5000 Du        
   1930 ****       253.0000 390.5000 -101.2500 Du        
   1931 ****       253.0000 390.5000 -101.0000 Du        
   1932 ****       253.0000 390.5000 -97.0000 Du        
   1933 ****       253.0000 390.5000 -96.7500 Du        
   1934 ****       253.0000 390.5000 -96.5000 Du        
   1935 ****       253.0000 390.5000 -96.2500 Du        
   1936 ****       253.0000 390.5000 -96.0000 Du        
   1937 ****       253.0000 390.7500 -104.2500 Du        
   1938 ****       253.0000 390.7500 -104.0000 Du        
   1939 ****       253.0000 390.7500 -103.7500 Du        
   1940 ****       253.0000 390.7500 -103.5000 Du        
   1941 ****       253.0000 390.7500 -103.2500 Du        
   1942 ****       253.0000 390.7500 -103.0000 Du        
   1943 ****       253.0000 390.7500 -102.7500 Du        
   1944 ****       253.0000 390.7500 -102.5000 Du        
   1945 ****       253.0000 390.7500 -102.2500 Du        
   1946 ****       253.0000 390.7500 -102.0000 Du        
   1947 ****       253.0000 390.7500 -101.7500 Du        
   1948 ****       253.0000 390.7500 -101.5000 Du        
   1949 ****       253.0000 390.7500 -101.2500 Du        
   1950 ****       253.0000 390.7500 -97.0000 Du        
   1951 ****       253.0000 390.7500 -96.7500 Du        
   1952 ****       253.0000 390.7500 -96.5000 Du        
   1953 ****       253.0000 390.7500 -96.2500 Du        
   1954 ****       253.0000 390.7500 -96.0000 Du        
   1955 ****       253.0000 390.7500 -95.7500 Du        
   1956 ****       253.0000 391.0000 -104.5000 Du        
   1957 ****       253.0000 391.0000 -104.2500 Du        
   1958 ****       253.0000 391.0000 -104.0000 Du        
   1959 ****       253.0000 391.0000 -103.7500 Du        
   1960 ****       253.0000 391.0000 -103.5000 Du        
   1961 ****       253.0000 391.0000 -103.2500 Du        
   1962 ****       253.0000 391.0000 -103.0000 Du        
   1963 ****       253.0000 391.0000 -102.7500 Du        
   1964 ****       253.0000 391.0000 -102.5000 Du        
   1965 ****       253.0000 391.0000 -102.2500 Du        
   1966 ****       253.0000 391.0000 -102.0000 Du        
   1967 ****       253.0000 391.0000 -101.7500 Du        
   1968 ****       253.0000 391.0000 -101.5000 Du        
   1969 ****       253.0000 391.0000 -101.2500 Du        
   1970 ****       253.0000 391.0000 -96.7500 Du        
   1971 ****       253.0000 391.0000 -96.5000 Du        
   1972 ****       253.0000 391.0000 -96.2500 Du        
   1973 ****       253.0000 391.0000 -96.0000 Du        
   1974 ****       253.0000 391.0000 -95.7500 Du        
   1975 ****       253.0000 391.2500 -104.7500 Du        
   1976 ****       253.0000 391.2500 -104.5000 Du        
   1977 ****       253.0000 391.2500 -104.2500 Du        
   1978 ****       253.0000 391.2500 -104.0000 Du        
   1979 ****       253.0000 391.2500 -103.7500 Du        
   1980 ****       253.0000 391.2500 -103.5000 Du        
   1981 ****       253.0000 391.2500 -103.2500 Du        
   1982 ****       253.0000 391.2500 -103.0000 Du        
   1983 ****       253.0000 391.2500 -102.7500 Du        
   1984 ****       253.0000 391.2500 -102.5000 Du        
   1985 ****       253.0000 391.2500 -102.2500 Du        
   1986 ****       253.0000 391.2500 -102.0000 Du        
   1987 ****       253.0000 391.2500 -101.7500 Du        
   1988 ****       253.0000 391.2500 -101.5000 Du        
   1989 ****       253.0000 391.2500 -96.5000 Du        
   1990 ****       253.0000 391.2500 -96.2500 Du        
   1991 ****       253.0000 391.2500 -96.0000 Du        
   1992 ****       253.0000 391.2500 -95.7500 Du        
   1993 ****       253.0000 391.5000 -104.7500 Du        
   1994 ****       253.0000 391.5000 -104.5000 Du        
   1995 ****       253.0000 391.5000 -104.2500 Du        
   1996 ****       253.0000 391.5000 -104.0000 Du        
   1997 ****       253.0000 391.5000 -103.7500 Du        
   1998 ****       253.0000 391.5000 -103.5000 Du        
   1999 ****       253.0000 391.5000 -103.2500 Du        
   2000 ****       253.0000 391.5000 -103.0000 Du        
   2001 ****       253.0000 391.5000 -102.7500 Du        
   2002 ****       253.0000 391.5000 -102.5000 Du        
   2003 ****       253.0000 391.5000 -102.2500 Du        
   2004 ****       253.0000 391.5000 -102.0000 Du        
   2005 ****       253.0000 391.5000 -101.7500 Du        
   2006 ****       253.0000 391.5000 -96.2500 Du        
   2007 ****       253.0000 391.5000 -96.0000 Du        
   2008 ****       253.0000 391.5000 -95.7500 Du        
   2009 ****       253.0000 391.5000 -95.5000 Du        
   2010 ****       253.0000 391.7500 -104.7500 Du        
   2011 ****       253.0000 391.7500 -104.5000 Du        
   2012 ****       253.0000 391.7500 -104.2500 Du        
   2013 ****       253.0000 391.7500 -104.0000 Du        
   2014 ****       253.0000 391.7500 -103.7500 Du        
   2015 ****       253.0000 391.7500 -103.5000 Du        
   2016 ****       253.0000 391.7500 -103.2500 Du        
   2017 ****       253.0000 391.7500 -103.0000 Du        
   2018 ****       253.0000 391.7500 -102.7500 Du        
   2019 ****       253.0000 391.7500 -102.5000 Du        
   2020 ****       253.0000 391.7500 -102.2500 Du        
   2021 ****       253.0000 391.7500 -102.0000 Du        
   2022 ****       253.0000 391.7500 -101.7500 Du        
   2023 ****       253.0000 391.7500 -96.0000 Du        
   2024 ****       253.0000 391.7500 -95.7500 Du        
   2025 ****       253.0000 391.7500 -95.5000 Du        
   2026 ****       253.0000 391.7500 -95.2500 Du        
   2027 ****       253.0000 392.0000 -104.5000 Du        
   2028 ****       253.0000 392.0000 -104.2500 Du        
   2029 ****       253.0000 392.0000 -104.0000 Du        
   2030 ****       253.0000 392.0000 -103.7500 Du        
   2031 ****       253.0000 392.0000 -103.5000 Du        
   2032 ****       253.0000 392.0000 -103.2500 Du        
   2033 ****       253.0000 392.0000 -103.0000 Du        
   2034 ****       253.0000 392.0000 -102.7500 Du        
   2035 ****       253.0000 392.0000 -102.5000 Du        
   2036 ****       253.0000 392.0000 -102.2500 Du        
   2037 ****       253.0000 392.0000 -102.0000 Du        
   2038 ****       253.0000 392.0000 -96.0000 Du        
   2039 ****       253.0000 392.0000 -95.7500 Du        
   2040 ****       253.0000 392.0000 -95.5000 Du        
   2041 ****       253.0000 392.0000 -95.2500 Du        
   2042 ****       253.0000 392.2500 -104.5000 Du        
   2043 ****       253.0000 392.2500 -104.2500 Du        
   2044 ****       253.0000 392.2500 -104.0000 Du        
   2045 ****       253.0000 392.2500 -103.7500 Du        
   2046 ****       253.2500 388.2500 -102.2500 Du        
   2047 ****       253.2500 388.2500 -102.0000 Du        
   2048 ****       253.2500 388.5000 -102.2500 Du        
   2049 ****       253.2500 388.5000 -102.0000 Du        
   2050 ****       253.2500 388.5000 -101.7500 Du        
   2051 ****       253.2500 388.7500 -102.5000 Du        
   2052 ****       253.2500 388.7500 -102.2500 Du        
   2053 ****       253.2500 388.7500 -102.0000 Du        
   2054 ****       253.2500 388.7500 -101.7500 Du        
   2055 ****       253.2500 388.7500 -101.5000 Du        
   2056 ****       253.2500 389.0000 -102.5000 Du        
   2057 ****       253.2500 389.0000 -102.2500 Du        
   2058 ****       253.2500 389.0000 -102.0000 Du        
   2059 ****       253.2500 389.0000 -101.7500 Du        
   2060 ****       253.2500 389.0000 -101.5000 Du        
   2061 ****       253.2500 389.0000 -101.2500 Du        
   2062 ****       253.2500 389.2500 -102.7500 Du        
   2063 ****       253.2500 389.2500 -102.5000 Du        
   2064 ****       253.2500 389.2500 -102.2500 Du        
   2065 ****       253.2500 389.2500 -102.0000 Du        
   2066 ****       253.2500 389.2500 -101.7500 Du        
   2067 ****       253.2500 389.2500 -101.5000 Du        
   2068 ****       253.2500 389.2500 -101.2500 Du        
   2069 ****       253.2500 389.2500 -101.0000 Du        
   2070 ****       253.2500 389.5000 -102.7500 Du        
   2071 ****       253.2500 389.5000 -102.2500 Du        
   2072 ****       253.2500 389.5000 -102.0000 Du        
   2073 ****       253.2500 389.5000 -101.7500 Du        
   2074 ****       253.2500 389.5000 -101.5000 Du        
   2075 ****       253.2500 389.5000 -101.2500 Du        
   2076 ****       253.2500 389.7500 -103.0000 Du        
   2077 ****       253.2500 389.7500 -102.7500 Du        
   2078 ****       253.2500 389.7500 -102.2500 Du        
   2079 ****       253.2500 389.7500 -102.0000 Du        
   2080 ****       253.2500 389.7500 -101.7500 Du        
   2081 ****       253.2500 389.7500 -101.5000 Du        
   2082 ****       253.2500 389.7500 -101.2500 Du        
   2083 ****       253.2500 389.7500 -101.0000 Du        
   2084 ****       253.2500 389.7500 -100.7500 Du        
   2085 ****       253.2500 390.0000 -103.2500 Du        
   2086 ****       253.2500 390.0000 -103.0000 Du        
   2087 ****       253.2500 390.0000 -102.7500 Du        
   2088 ****       253.2500 390.0000 -102.5000 Du        
   2089 ****       253.2500 390.0000 -102.2500 Du        
   2090 ****       253.2500 390.0000 -102.0000 Du        
   2091 ****       253.2500 390.0000 -101.7500 Du        
   2092 ****       253.2500 390.0000 -101.5000 Du        
   2093 ****       253.2500 390.0000 -101.2500 Du        
   2094 ****       253.2500 390.0000 -101.0000 Du        
   2095 ****       253.2500 390.0000 -100.7500 Du        
   2096 ****       253.2500 390.0000 -97.2500 Du        
   2097 ****       253.2500 390.0000 -97.0000 Du        
   2098 ****       253.2500 390.0000 -96.7500 Du        
   2099 ****       253.2500 390.0000 -96.5000 Du        
   2100 ****       253.2500 390.2500 -103.5000 Du        
   2101 ****       253.2500 390.2500 -103.2500 Du        
   2102 ****       253.2500 390.2500 -103.0000 Du        
   2103 ****       253.2500 390.2500 -102.7500 Du        
   2104 ****       253.2500 390.2500 -102.5000 Du        
   2105 ****       253.2500 390.2500 -102.2500 Du        
   2106 ****       253.2500 390.2500 -102.0000 Du        
   2107 ****       253.2500 390.2500 -101.7500 Du        
   2108 ****       253.2500 390.2500 -101.5000 Du        
   2109 ****       253.2500 390.2500 -101.2500 Du        
   2110 ****       253.2500 390.2500 -101.0000 Du        
   2111 ****       253.2500 390.2500 -97.0000 Du        
   2112 ****       253.2500 390.2500 -96.7500 Du        
   2113 ****       253.2500 390.2500 -96.5000 Du        
   2114 ****       253.2500 390.5000 -104.0000 Du        
   2115 ****       253.2500 390.5000 -103.7500 Du        
   2116 ****       253.2500 390.5000 -103.5000 Du        
   2117 ****       253.2500 390.5000 -103.2500 Du        
   2118 ****       253.2500 390.5000 -103.0000 Du        
   2119 ****       253.2500 390.5000 -102.7500 Du        
   2120 ****       253.2500 390.5000 -102.5000 Du        
   2121 ****       253.2500 390.5000 -102.2500 Du        
   2122 ****       253.2500 390.5000 -102.0000 Du        
   2123 ****       253.2500 390.5000 -101.7500 Du        
   2124 ****       253.2500 390.5000 -101.5000 Du        
   2125 ****       253.2500 390.5000 -101.2500 Du        
   2126 ****       253.2500 390.5000 -97.0000 Du        
   2127 ****       253.2500 390.5000 -96.7500 Du        
   2128 ****       253.2500 390.5000 -96.5000 Du        
   2129 ****       253.2500 390.5000 -96.2500 Du        
   2130 ****       253.2500 390.5000 -96.0000 Du        
   2131 ****       253.2500 390.5000 -95.7500 Du        
   2132 ****       253.2500 390.7500 -104.5000 Du        
   2133 ****       253.2500 390.7500 -104.2500 Du        
   2134 ****       253.2500 390.7500 -104.0000 Du        
   2135 ****       253.2500 390.7500 -103.7500 Du        
   2136 ****       253.2500 390.7500 -103.5000 Du        
   2137 ****       253.2500 390.7500 -103.2500 Du        
   2138 ****       253.2500 390.7500 -103.0000 Du        
   2139 ****       253.2500 390.7500 -102.7500 Du        
   2140 ****       253.2500 390.7500 -102.5000 Du        
   2141 ****       253.2500 390.7500 -102.2500 Du        
   2142 ****       253.2500 390.7500 -102.0000 Du        
   2143 ****       253.2500 390.7500 -101.7500 Du        
   2144 ****       253.2500 390.7500 -101.5000 Du        
   2145 ****       253.2500 390.7500 -101.2500 Du        
   2146 ****       253.2500 390.7500 -101.0000 Du        
   2147 ****       253.2500 390.7500 -97.0000 Du        
   2148 ****       253.2500 390.7500 -96.7500 Du        
   2149 ****       253.2500 390.7500 -96.5000 Du        
   2150 ****       253.2500 390.7500 -96.2500 Du        
   2151 ****       253.2500 390.7500 -96.0000 Du        
   2152 ****       253.2500 390.7500 -95.7500 Du        
   2153 ****       253.2500 391.0000 -104.7500 Du        
   2154 ****       253.2500 391.0000 -104.5000 Du        
   2155 ****       253.2500 391.0000 -104.2500 Du        
   2156 ****       253.2500 391.0000 -104.0000 Du        
   2157 ****       253.2500 391.0000 -103.7500 Du        
   2158 ****       253.2500 391.0000 -103.5000 Du        
   2159 ****       253.2500 391.0000 -103.2500 Du        
   2160 ****       253.2500 391.0000 -103.0000 Du        
   2161 ****       253.2500 391.0000 -102.7500 Du        
   2162 ****       253.2500 391.0000 -102.5000 Du        
   2163 ****       253.2500 391.0000 -102.2500 Du        
   2164 ****       253.2500 391.0000 -102.0000 Du        
   2165 ****       253.2500 391.0000 -101.7500 Du        
   2166 ****       253.2500 391.0000 -101.5000 Du        
   2167 ****       253.2500 391.0000 -101.2500 Du        
   2168 ****       253.2500 391.0000 -96.7500 Du        
   2169 ****       253.2500 391.0000 -96.5000 Du        
   2170 ****       253.2500 391.0000 -96.2500 Du        
   2171 ****       253.2500 391.0000 -96.0000 Du        
   2172 ****       253.2500 391.0000 -95.7500 Du        
   2173 ****       253.2500 391.0000 -95.5000 Du        
   2174 ****       253.2500 391.2500 -104.7500 Du        
   2175 ****       253.2500 391.2500 -104.5000 Du        
   2176 ****       253.2500 391.2500 -104.2500 Du        
   2177 ****       253.2500 391.2500 -104.0000 Du        
   2178 ****       253.2500 391.2500 -103.7500 Du        
   2179 ****       253.2500 391.2500 -103.5000 Du        
   2180 ****       253.2500 391.2500 -103.2500 Du        
   2181 ****       253.2500 391.2500 -103.0000 Du        
   2182 ****       253.2500 391.2500 -102.7500 Du        
   2183 ****       253.2500 391.2500 -102.5000 Du        
   2184 ****       253.2500 391.2500 -102.2500 Du        
   2185 ****       253.2500 391.2500 -102.0000 Du        
   2186 ****       253.2500 391.2500 -101.7500 Du        
   2187 ****       253.2500 391.2500 -101.5000 Du        
   2188 ****       253.2500 391.2500 -96.5000 Du        
   2189 ****       253.2500 391.2500 -96.2500 Du        
   2190 ****       253.2500 391.2500 -96.0000 Du        
   2191 ****       253.2500 391.2500 -95.7500 Du        
   2192 ****       253.2500 391.2500 -95.5000 Du        
   2193 ****       253.2500 391.5000 -104.7500 Du        
   2194 ****       253.2500 391.5000 -104.5000 Du        
   2195 ****       253.2500 391.5000 -104.2500 Du        
   2196 ****       253.2500 391.5000 -104.0000 Du        
   2197 ****       253.2500 391.5000 -103.7500 Du        
   2198 ****       253.2500 391.5000 -103.5000 Du        
   2199 ****       253.2500 391.5000 -103.2500 Du        
   2200 ****       253.2500 391.5000 -103.0000 Du        
   2201 ****       253.2500 391.5000 -102.7500 Du        
   2202 ****       253.2500 391.5000 -102.5000 Du        
   2203 ****       253.2500 391.5000 -102.2500 Du        
   2204 ****       253.2500 391.5000 -102.0000 Du        
   2205 ****       253.2500 391.5000 -101.7500 Du        
   2206 ****       253.2500 391.5000 -101.5000 Du        
   2207 ****       253.2500 391.5000 -96.2500 Du        
   2208 ****       253.2500 391.5000 -96.0000 Du        
   2209 ****       253.2500 391.5000 -95.7500 Du        
   2210 ****       253.2500 391.5000 -95.5000 Du        
   2211 ****       253.2500 391.5000 -95.2500 Du        
   2212 ****       253.2500 391.7500 -104.7500 Du        
   2213 ****       253.2500 391.7500 -104.5000 Du        
   2214 ****       253.2500 391.7500 -104.2500 Du        
   2215 ****       253.2500 391.7500 -104.0000 Du        
   2216 ****       253.2500 391.7500 -103.7500 Du        
   2217 ****       253.2500 391.7500 -103.5000 Du        
   2218 ****       253.2500 391.7500 -103.2500 Du        
   2219 ****       253.2500 391.7500 -103.0000 Du        
   2220 ****       253.2500 391.7500 -102.7500 Du        
   2221 ****       253.2500 391.7500 -102.5000 Du        
   2222 ****       253.2500 391.7500 -102.2500 Du        
   2223 ****       253.2500 391.7500 -102.0000 Du        
   2224 ****       253.2500 391.7500 -101.7500 Du        
   2225 ****       253.2500 391.7500 -96.2500 Du        
   2226 ****       253.2500 391.7500 -96.0000 Du        
   2227 ****       253.2500 391.7500 -95.7500 Du        
   2228 ****       253.2500 391.7500 -95.5000 Du        
   2229 ****       253.2500 391.7500 -95.2500 Du        
   2230 ****       253.2500 391.7500 -95.0000 Du        
   2231 ****       253.2500 392.0000 -104.7500 Du        
   2232 ****       253.2500 392.0000 -104.5000 Du        
   2233 ****       253.2500 392.0000 -104.2500 Du        
   2234 ****       253.2500 392.0000 -104.0000 Du        
   2235 ****       253.2500 392.0000 -103.7500 Du        
   2236 ****       253.2500 392.0000 -103.5000 Du        
   2237 ****       253.2500 392.0000 -103.2500 Du        
   2238 ****       253.2500 392.0000 -103.0000 Du        
   2239 ****       253.2500 392.0000 -102.7500 Du        
   2240 ****       253.2500 392.0000 -102.5000 Du        
   2241 ****       253.2500 392.0000 -102.2500 Du        
   2242 ****       253.2500 392.0000 -102.0000 Du        
   2243 ****       253.2500 392.0000 -101.7500 Du        
   2244 ****       253.2500 392.0000 -96.0000 Du        
   2245 ****       253.2500 392.0000 -95.7500 Du        
   2246 ****       253.2500 392.0000 -95.5000 Du        
   2247 ****       253.2500 392.0000 -95.2500 Du        
   2248 ****       253.2500 392.2500 -104.7500 Du        
   2249 ****       253.2500 392.2500 -104.5000 Du        
   2250 ****       253.2500 392.2500 -104.2500 Du        
   2251 ****       253.2500 392.2500 -104.0000 Du        
   2252 ****       253.2500 392.2500 -103.7500 Du        
   2253 ****       253.2500 392.2500 -103.5000 Du        
   2254 ****       253.2500 392.2500 -103.2500 Du        
   2255 ****       253.2500 392.5000 -104.5000 Du        
   2256 ****       253.2500 392.5000 -104.2500 Du        
   2257 ****       253.2500 392.5000 -104.0000 Du        
   2258 ****       253.5000 388.2500 -102.2500 Du        
   2259 ****       253.5000 388.2500 -102.0000 Du        
   2260 ****       253.5000 388.5000 -102.2500 Du        
   2261 ****       253.5000 388.5000 -102.0000 Du        
   2262 ****       253.5000 388.7500 -102.5000 Du        
   2263 ****       253.5000 388.7500 -102.2500 Du        
   2264 ****       253.5000 388.7500 -102.0000 Du        
   2265 ****       253.5000 388.7500 -101.7500 Du        
   2266 ****       253.5000 389.0000 -102.5000 Du        
   2267 ****       253.5000 389.0000 -102.2500 Du        
   2268 ****       253.5000 389.0000 -102.0000 Du        
   2269 ****       253.5000 389.5000 -102.7500 Du        
   2270 ****       253.5000 389.7500 -103.0000 Du        
   2271 ****       253.5000 389.7500 -102.7500 Du        
   2272 ****       253.5000 390.0000 -103.0000 Du        
   2273 ****       253.5000 390.0000 -102.7500 Du        
   2274 ****       253.5000 390.0000 -102.0000 Du        
   2275 ****       253.5000 390.2500 -103.5000 Du        
   2276 ****       253.5000 390.2500 -103.2500 Du        
   2277 ****       253.5000 390.2500 -103.0000 Du        
   2278 ****       253.5000 390.2500 -102.7500 Du        
   2279 ****       253.5000 390.2500 -102.2500 Du        
   2280 ****       253.5000 390.2500 -102.0000 Du        
   2281 ****       253.5000 390.2500 -101.7500 Du        
   2282 ****       253.5000 390.2500 -101.2500 Du        
   2283 ****       253.5000 390.2500 -97.0000 Du        
   2284 ****       253.5000 390.2500 -96.7500 Du        
   2285 ****       253.5000 390.5000 -104.2500 Du        
   2286 ****       253.5000 390.5000 -104.0000 Du        
   2287 ****       253.5000 390.5000 -103.7500 Du        
   2288 ****       253.5000 390.5000 -103.5000 Du        
   2289 ****       253.5000 390.5000 -103.2500 Du        
   2290 ****       253.5000 390.5000 -103.0000 Du        
   2291 ****       253.5000 390.5000 -102.7500 Du        
   2292 ****       253.5000 390.5000 -102.5000 Du        
   2293 ****       253.5000 390.5000 -102.2500 Du        
   2294 ****       253.5000 390.5000 -102.0000 Du        
   2295 ****       253.5000 390.5000 -101.7500 Du        
   2296 ****       253.5000 390.5000 -97.0000 Du        
   2297 ****       253.5000 390.5000 -96.7500 Du        
   2298 ****       253.5000 390.5000 -96.5000 Du        
   2299 ****       253.5000 390.5000 -96.2500 Du        
   2300 ****       253.5000 390.5000 -96.0000 Du        
   2301 ****       253.5000 390.5000 -95.7500 Du        
   2302 ****       253.5000 390.7500 -104.5000 Du        
   2303 ****       253.5000 390.7500 -104.2500 Du        
   2304 ****       253.5000 390.7500 -104.0000 Du        
   2305 ****       253.5000 390.7500 -103.7500 Du        
   2306 ****       253.5000 390.7500 -103.5000 Du        
   2307 ****       253.5000 390.7500 -103.2500 Du        
   2308 ****       253.5000 390.7500 -103.0000 Du        
   2309 ****       253.5000 390.7500 -102.7500 Du        
   2310 ****       253.5000 390.7500 -102.5000 Du        
   2311 ****       253.5000 390.7500 -102.2500 Du        
   2312 ****       253.5000 390.7500 -102.0000 Du        
   2313 ****       253.5000 390.7500 -101.7500 Du        
   2314 ****       253.5000 390.7500 -97.0000 Du        
   2315 ****       253.5000 390.7500 -96.7500 Du        
   2316 ****       253.5000 390.7500 -96.5000 Du        
   2317 ****       253.5000 390.7500 -96.2500 Du        
   2318 ****       253.5000 390.7500 -96.0000 Du        
   2319 ****       253.5000 390.7500 -95.7500 Du        
   2320 ****       253.5000 391.0000 -104.7500 Du        
   2321 ****       253.5000 391.0000 -104.5000 Du        
   2322 ****       253.5000 391.0000 -104.2500 Du        
   2323 ****       253.5000 391.0000 -104.0000 Du        
   2324 ****       253.5000 391.0000 -103.7500 Du        
   2325 ****       253.5000 391.0000 -103.5000 Du        
   2326 ****       253.5000 391.0000 -103.2500 Du        
   2327 ****       253.5000 391.0000 -103.0000 Du        
   2328 ****       253.5000 391.0000 -102.7500 Du        
   2329 ****       253.5000 391.0000 -102.5000 Du        
   2330 ****       253.5000 391.0000 -102.2500 Du        
   2331 ****       253.5000 391.0000 -102.0000 Du        
   2332 ****       253.5000 391.0000 -101.7500 Du        
   2333 ****       253.5000 391.0000 -101.5000 Du        
   2334 ****       253.5000 391.0000 -96.7500 Du        
   2335 ****       253.5000 391.0000 -96.5000 Du        
   2336 ****       253.5000 391.0000 -96.2500 Du        
   2337 ****       253.5000 391.0000 -96.0000 Du        
   2338 ****       253.5000 391.0000 -95.7500 Du        
   2339 ****       253.5000 391.0000 -95.5000 Du        
   2340 ****       253.5000 391.2500 -104.7500 Du        
   2341 ****       253.5000 391.2500 -104.5000 Du        
   2342 ****       253.5000 391.2500 -104.2500 Du        
   2343 ****       253.5000 391.2500 -104.0000 Du        
   2344 ****       253.5000 391.2500 -103.7500 Du        
   2345 ****       253.5000 391.2500 -103.5000 Du        
   2346 ****       253.5000 391.2500 -103.2500 Du        
   2347 ****       253.5000 391.2500 -103.0000 Du        
   2348 ****       253.5000 391.2500 -102.7500 Du        
   2349 ****       253.5000 391.2500 -102.5000 Du        
   2350 ****       253.5000 391.2500 -102.2500 Du        
   2351 ****       253.5000 391.2500 -102.0000 Du        
   2352 ****       253.5000 391.2500 -101.7500 Du        
   2353 ****       253.5000 391.2500 -101.5000 Du        
   2354 ****       253.5000 391.2500 -96.5000 Du        
   2355 ****       253.5000 391.2500 -96.2500 Du        
   2356 ****       253.5000 391.2500 -96.0000 Du        
   2357 ****       253.5000 391.2500 -95.7500 Du        
   2358 ****       253.5000 391.2500 -95.5000 Du        
   2359 ****       253.5000 391.2500 -95.2500 Du        
   2360 ****       253.5000 391.5000 -104.7500 Du        
   2361 ****       253.5000 391.5000 -104.5000 Du        
   2362 ****       253.5000 391.5000 -104.2500 Du        
   2363 ****       253.5000 391.5000 -104.0000 Du        
   2364 ****       253.5000 391.5000 -103.7500 Du        
   2365 ****       253.5000 391.5000 -103.5000 Du        
   2366 ****       253.5000 391.5000 -103.2500 Du        
   2367 ****       253.5000 391.5000 -103.0000 Du        
   2368 ****       253.5000 391.5000 -102.7500 Du        
   2369 ****       253.5000 391.5000 -102.5000 Du        
   2370 ****       253.5000 391.5000 -102.2500 Du        
   2371 ****       253.5000 391.5000 -102.0000 Du        
   2372 ****       253.5000 391.5000 -101.7500 Du        
   2373 ****       253.5000 391.5000 -101.5000 Du        
   2374 ****       253.5000 391.5000 -96.5000 Du        
   2375 ****       253.5000 391.5000 -96.2500 Du        
   2376 ****       253.5000 391.5000 -96.0000 Du        
   2377 ****       253.5000 391.5000 -95.7500 Du        
   2378 ****       253.5000 391.5000 -95.5000 Du        
   2379 ****       253.5000 391.5000 -95.2500 Du        
   2380 ****       253.5000 391.5000 -95.0000 Du        
   2381 ****       253.5000 391.7500 -104.7500 Du        
   2382 ****       253.5000 391.7500 -104.5000 Du        
   2383 ****       253.5000 391.7500 -104.2500 Du        
   2384 ****       253.5000 391.7500 -104.0000 Du        
   2385 ****       253.5000 391.7500 -103.7500 Du        
   2386 ****       253.5000 391.7500 -103.5000 Du        
   2387 ****       253.5000 391.7500 -103.2500 Du        
   2388 ****       253.5000 391.7500 -103.0000 Du        
   2389 ****       253.5000 391.7500 -102.7500 Du        
   2390 ****       253.5000 391.7500 -102.5000 Du        
   2391 ****       253.5000 391.7500 -102.2500 Du        
   2392 ****       253.5000 391.7500 -102.0000 Du        
   2393 ****       253.5000 391.7500 -101.7500 Du        
   2394 ****       253.5000 391.7500 -101.5000 Du        
   2395 ****       253.5000 391.7500 -96.2500 Du        
   2396 ****       253.5000 391.7500 -96.0000 Du        
   2397 ****       253.5000 391.7500 -95.7500 Du        
   2398 ****       253.5000 391.7500 -95.5000 Du        
   2399 ****       253.5000 391.7500 -95.2500 Du        
   2400 ****       253.5000 391.7500 -95.0000 Du        
   2401 ****       253.5000 392.0000 -104.7500 Du        
   2402 ****       253.5000 392.0000 -104.5000 Du        
   2403 ****       253.5000 392.0000 -104.2500 Du        
   2404 ****       253.5000 392.0000 -104.0000 Du        
   2405 ****       253.5000 392.0000 -103.7500 Du        
   2406 ****       253.5000 392.0000 -103.5000 Du        
   2407 ****       253.5000 392.0000 -103.2500 Du        
   2408 ****       253.5000 392.0000 -103.0000 Du        
   2409 ****       253.5000 392.0000 -102.7500 Du        
   2410 ****       253.5000 392.0000 -102.5000 Du        
   2411 ****       253.5000 392.0000 -102.2500 Du        
   2412 ****       253.5000 392.0000 -102.0000 Du        
   2413 ****       253.5000 392.0000 -101.7500 Du        
   2414 ****       253.5000 392.0000 -96.0000 Du        
   2415 ****       253.5000 392.0000 -95.7500 Du        
   2416 ****       253.5000 392.0000 -95.5000 Du        
   2417 ****       253.5000 392.2500 -104.7500 Du        
   2418 ****       253.5000 392.2500 -104.5000 Du        
   2419 ****       253.5000 392.2500 -104.2500 Du        
   2420 ****       253.5000 392.2500 -104.0000 Du        
   2421 ****       253.5000 392.2500 -103.7500 Du        
   2422 ****       253.5000 392.2500 -103.5000 Du        
   2423 ****       253.5000 392.2500 -103.2500 Du        
   2424 ****       253.5000 392.2500 -103.0000 Du        
   2425 ****       253.5000 392.2500 -102.7500 Du        
   2426 ****       253.5000 392.5000 -104.7500 Du        
   2427 ****       253.5000 392.5000 -104.5000 Du        
   2428 ****       253.5000 392.5000 -104.2500 Du        
   2429 ****       253.5000 392.5000 -104.0000 Du        
   2430 ****       253.7500 388.2500 -102.5000 Du        
   2431 ****       253.7500 388.2500 -102.2500 Du        
   2432 ****       253.7500 388.2500 -102.0000 Du        
   2433 ****       253.7500 388.5000 -102.5000 Du        
   2434 ****       253.7500 388.5000 -102.2500 Du        
   2435 ****       253.7500 388.7500 -102.5000 Du        
   2436 ****       253.7500 388.7500 -102.2500 Du        
   2437 ****       253.7500 388.7500 -102.0000 Du        
   2438 ****       253.7500 388.7500 -101.7500 Du        
   2439 ****       253.7500 389.0000 -102.7500 Du        
   2440 ****       253.7500 389.0000 -102.5000 Du        
   2441 ****       253.7500 389.0000 -102.2500 Du        
   2442 ****       253.7500 389.0000 -102.0000 Du        
   2443 ****       253.7500 389.5000 -102.7500 Du        
   2444 ****       253.7500 389.7500 -103.0000 Du        
   2445 ****       253.7500 389.7500 -102.7500 Du        
   2446 ****       253.7500 390.0000 -103.2500 Du        
   2447 ****       253.7500 390.0000 -103.0000 Du        
   2448 ****       253.7500 390.0000 -102.7500 Du        
   2449 ****       253.7500 390.0000 -102.2500 Du        
   2450 ****       253.7500 390.2500 -104.0000 Du        
   2451 ****       253.7500 390.2500 -103.5000 Du        
   2452 ****       253.7500 390.2500 -103.2500 Du        
   2453 ****       253.7500 390.2500 -103.0000 Du        
   2454 ****       253.7500 390.2500 -102.7500 Du        
   2455 ****       253.7500 390.2500 -102.2500 Du        
   2456 ****       253.7500 390.2500 -102.0000 Du        
   2457 ****       253.7500 390.2500 -101.7500 Du        
   2458 ****       253.7500 390.2500 -97.0000 Du        
   2459 ****       253.7500 390.2500 -96.7500 Du        
   2460 ****       253.7500 390.5000 -104.2500 Du        
   2461 ****       253.7500 390.5000 -104.0000 Du        
   2462 ****       253.7500 390.5000 -103.7500 Du        
   2463 ****       253.7500 390.5000 -103.5000 Du        
   2464 ****       253.7500 390.5000 -103.2500 Du        
   2465 ****       253.7500 390.5000 -103.0000 Du        
   2466 ****       253.7500 390.5000 -102.7500 Du        
   2467 ****       253.7500 390.5000 -102.5000 Du        
   2468 ****       253.7500 390.5000 -102.2500 Du        
   2469 ****       253.7500 390.5000 -102.0000 Du        
   2470 ****       253.7500 390.5000 -101.7500 Du        
   2471 ****       253.7500 390.5000 -97.0000 Du        
   2472 ****       253.7500 390.5000 -96.7500 Du        
   2473 ****       253.7500 390.5000 -96.5000 Du        
   2474 ****       253.7500 390.5000 -96.2500 Du        
   2475 ****       253.7500 390.5000 -96.0000 Du        
   2476 ****       253.7500 390.5000 -95.7500 Du        
   2477 ****       253.7500 390.7500 -104.7500 Du        
   2478 ****       253.7500 390.7500 -104.5000 Du        
   2479 ****       253.7500 390.7500 -104.2500 Du        
   2480 ****       253.7500 390.7500 -104.0000 Du        
   2481 ****       253.7500 390.7500 -103.7500 Du        
   2482 ****       253.7500 390.7500 -103.5000 Du        
   2483 ****       253.7500 390.7500 -103.2500 Du        
   2484 ****       253.7500 390.7500 -103.0000 Du        
   2485 ****       253.7500 390.7500 -102.7500 Du        
   2486 ****       253.7500 390.7500 -102.5000 Du        
   2487 ****       253.7500 390.7500 -102.2500 Du        
   2488 ****       253.7500 390.7500 -102.0000 Du        
   2489 ****       253.7500 390.7500 -101.7500 Du        
   2490 ****       253.7500 390.7500 -97.0000 Du        
   2491 ****       253.7500 390.7500 -96.7500 Du        
   2492 ****       253.7500 390.7500 -96.5000 Du        
   2493 ****       253.7500 390.7500 -96.2500 Du        
   2494 ****       253.7500 390.7500 -96.0000 Du        
   2495 ****       253.7500 390.7500 -95.7500 Du        
   2496 ****       253.7500 390.7500 -95.5000 Du        
   2497 ****       253.7500 390.7500 -95.2500 Du        
   2498 ****       253.7500 391.0000 -104.7500 Du        
   2499 ****       253.7500 391.0000 -104.5000 Du        
   2500 ****       253.7500 391.0000 -104.2500 Du        
   2501 ****       253.7500 391.0000 -104.0000 Du        
   2502 ****       253.7500 391.0000 -103.7500 Du        
   2503 ****       253.7500 391.0000 -103.5000 Du        
   2504 ****       253.7500 391.0000 -103.2500 Du        
   2505 ****       253.7500 391.0000 -103.0000 Du        
   2506 ****       253.7500 391.0000 -102.7500 Du        
   2507 ****       253.7500 391.0000 -102.5000 Du        
   2508 ****       253.7500 391.0000 -102.2500 Du        
   2509 ****       253.7500 391.0000 -102.0000 Du        
   2510 ****       253.7500 391.0000 -101.7500 Du        
   2511 ****       253.7500 391.0000 -101.5000 Du        
   2512 ****       253.7500 391.0000 -101.2500 Du        
   2513 ****       253.7500 391.0000 -97.0000 Du        
   2514 ****       253.7500 391.0000 -96.7500 Du        
   2515 ****       253.7500 391.0000 -96.5000 Du        
   2516 ****       253.7500 391.0000 -96.2500 Du        
   2517 ****       253.7500 391.0000 -96.0000 Du        
   2518 ****       253.7500 391.0000 -95.7500 Du        
   2519 ****       253.7500 391.0000 -95.5000 Du        
   2520 ****       253.7500 391.0000 -95.2500 Du        
   2521 ****       253.7500 391.0000 -95.0000 Du        
   2522 ****       253.7500 391.2500 -104.7500 Du        
   2523 ****       253.7500 391.2500 -104.5000 Du        
   2524 ****       253.7500 391.2500 -104.2500 Du        
   2525 ****       253.7500 391.2500 -104.0000 Du        
   2526 ****       253.7500 391.2500 -103.7500 Du        
   2527 ****       253.7500 391.2500 -103.5000 Du        
   2528 ****       253.7500 391.2500 -103.2500 Du        
   2529 ****       253.7500 391.2500 -103.0000 Du        
   2530 ****       253.7500 391.2500 -102.7500 Du        
   2531 ****       253.7500 391.2500 -102.5000 Du        
   2532 ****       253.7500 391.2500 -102.2500 Du        
   2533 ****       253.7500 391.2500 -102.0000 Du        
   2534 ****       253.7500 391.2500 -101.7500 Du        
   2535 ****       253.7500 391.2500 -101.5000 Du        
   2536 ****       253.7500 391.2500 -101.2500 Du        
   2537 ****       253.7500 391.2500 -96.7500 Du        
   2538 ****       253.7500 391.2500 -96.5000 Du        
   2539 ****       253.7500 391.2500 -96.2500 Du        
   2540 ****       253.7500 391.2500 -96.0000 Du        
   2541 ****       253.7500 391.2500 -95.7500 Du        
   2542 ****       253.7500 391.2500 -95.5000 Du        
   2543 ****       253.7500 391.2500 -95.2500 Du        
   2544 ****       253.7500 391.2500 -95.0000 Du        
   2545 ****       253.7500 391.5000 -105.0000 Du        
   2546 ****       253.7500 391.5000 -104.7500 Du        
   2547 ****       253.7500 391.5000 -104.5000 Du        
   2548 ****       253.7500 391.5000 -104.2500 Du        
   2549 ****       253.7500 391.5000 -104.0000 Du        
   2550 ****       253.7500 391.5000 -103.7500 Du        
   2551 ****       253.7500 391.5000 -103.5000 Du        
   2552 ****       253.7500 391.5000 -103.2500 Du        
   2553 ****       253.7500 391.5000 -103.0000 Du        
   2554 ****       253.7500 391.5000 -102.7500 Du        
   2555 ****       253.7500 391.5000 -102.5000 Du        
   2556 ****       253.7500 391.5000 -102.2500 Du        
   2557 ****       253.7500 391.5000 -102.0000 Du        
   2558 ****       253.7500 391.5000 -101.7500 Du        
   2559 ****       253.7500 391.5000 -101.5000 Du        
   2560 ****       253.7500 391.5000 -101.2500 Du        
   2561 ****       253.7500 391.5000 -96.5000 Du        
   2562 ****       253.7500 391.5000 -96.2500 Du        
   2563 ****       253.7500 391.5000 -96.0000 Du        
   2564 ****       253.7500 391.5000 -95.7500 Du        
   2565 ****       253.7500 391.5000 -95.5000 Du        
   2566 ****       253.7500 391.5000 -95.2500 Du        
   2567 ****       253.7500 391.5000 -95.0000 Du        
   2568 ****       253.7500 391.5000 -94.7500 Du        
   2569 ****       253.7500 391.7500 -105.0000 Du        
   2570 ****       253.7500 391.7500 -104.7500 Du        
   2571 ****       253.7500 391.7500 -104.5000 Du        
   2572 ****       253.7500 391.7500 -104.2500 Du        
   2573 ****       253.7500 391.7500 -104.0000 Du        
   2574 ****       253.7500 391.7500 -103.7500 Du        
   2575 ****       253.7500 391.7500 -103.5000 Du        
   2576 ****       253.7500 391.7500 -103.2500 Du        
   2577 ****       253.7500 391.7500 -103.0000 Du        
   2578 ****       253.7500 391.7500 -102.7500 Du        
   2579 ****       253.7500 391.7500 -102.5000 Du        
   2580 ****       253.7500 391.7500 -102.2500 Du        
   2581 ****       253.7500 391.7500 -102.0000 Du        
   2582 ****       253.7500 391.7500 -101.7500 Du        
   2583 ****       253.7500 391.7500 -101.5000 Du        
   2584 ****       253.7500 391.7500 -101.2500 Du        
   2585 ****       253.7500 391.7500 -96.2500 Du        
   2586 ****       253.7500 391.7500 -96.0000 Du        
   2587 ****       253.7500 391.7500 -95.7500 Du        
   2588 ****       253.7500 391.7500 -95.5000 Du        
   2589 ****       253.7500 391.7500 -95.2500 Du        
   2590 ****       253.7500 391.7500 -95.0000 Du        
   2591 ****       253.7500 392.0000 -105.0000 Du        
   2592 ****       253.7500 392.0000 -104.7500 Du        
   2593 ****       253.7500 392.0000 -104.5000 Du        
   2594 ****       253.7500 392.0000 -104.2500 Du        
   2595 ****       253.7500 392.0000 -104.0000 Du        
   2596 ****       253.7500 392.0000 -103.7500 Du        
   2597 ****       253.7500 392.0000 -103.5000 Du        
   2598 ****       253.7500 392.0000 -103.2500 Du        
   2599 ****       253.7500 392.0000 -103.0000 Du        
   2600 ****       253.7500 392.0000 -102.7500 Du        
   2601 ****       253.7500 392.0000 -102.5000 Du        
   2602 ****       253.7500 392.0000 -102.2500 Du        
   2603 ****       253.7500 392.0000 -102.0000 Du        
   2604 ****       253.7500 392.0000 -101.7500 Du        
   2605 ****       253.7500 392.0000 -101.5000 Du        
   2606 ****       253.7500 392.0000 -96.0000 Du        
   2607 ****       253.7500 392.0000 -95.7500 Du        
   2608 ****       253.7500 392.0000 -95.5000 Du        
   2609 ****       253.7500 392.2500 -105.0000 Du        
   2610 ****       253.7500 392.2500 -104.7500 Du        
   2611 ****       253.7500 392.2500 -104.5000 Du        
   2612 ****       253.7500 392.2500 -104.2500 Du        
   2613 ****       253.7500 392.2500 -104.0000 Du        
   2614 ****       253.7500 392.2500 -103.7500 Du        
   2615 ****       253.7500 392.2500 -103.5000 Du        
   2616 ****       253.7500 392.2500 -103.2500 Du        
   2617 ****       253.7500 392.2500 -103.0000 Du        
   2618 ****       253.7500 392.2500 -102.7500 Du        
   2619 ****       253.7500 392.2500 -102.5000 Du        
   2620 ****       253.7500 392.2500 -102.2500 Du        
   2621 ****       253.7500 392.2500 -102.0000 Du        
   2622 ****       253.7500 392.2500 -101.7500 Du        
   2623 ****       253.7500 392.2500 -101.5000 Du        
   2624 ****       253.7500 392.5000 -105.0000 Du        
   2625 ****       253.7500 392.5000 -104.7500 Du        
   2626 ****       253.7500 392.5000 -104.5000 Du        
   2627 ****       253.7500 392.5000 -104.2500 Du        
   2628 ****       253.7500 392.5000 -104.0000 Du        
   2629 ****       253.7500 392.5000 -103.7500 Du        
   2630 ****       253.7500 392.7500 -104.7500 Du        
   2631 ****       254.0000 388.2500 -102.7500 Du        
   2632 ****       254.0000 388.2500 -102.5000 Du        
   2633 ****       254.0000 388.2500 -102.2500 Du        
   2634 ****       254.0000 388.5000 -102.5000 Du        
   2635 ****       254.0000 388.5000 -102.2500 Du        
   2636 ****       254.0000 388.7500 -102.2500 Du        
   2637 ****       254.0000 388.7500 -102.0000 Du        
   2638 ****       254.0000 389.0000 -102.2500 Du        
   2639 ****       254.0000 389.0000 -102.0000 Du        
   2640 ****       254.0000 389.7500 -103.2500 Du        
   2641 ****       254.0000 389.7500 -103.0000 Du        
   2642 ****       254.0000 389.7500 -102.7500 Du        
   2643 ****       254.0000 390.0000 -103.5000 Du        
   2644 ****       254.0000 390.0000 -103.2500 Du        
   2645 ****       254.0000 390.0000 -103.0000 Du        
   2646 ****       254.0000 390.0000 -102.7500 Du        
   2647 ****       254.0000 390.2500 -104.2500 Du        
   2648 ****       254.0000 390.2500 -104.0000 Du        
   2649 ****       254.0000 390.2500 -103.7500 Du        
   2650 ****       254.0000 390.2500 -103.5000 Du        
   2651 ****       254.0000 390.2500 -103.2500 Du        
   2652 ****       254.0000 390.2500 -103.0000 Du        
   2653 ****       254.0000 390.2500 -102.7500 Du        
   2654 ****       254.0000 390.5000 -104.5000 Du        
   2655 ****       254.0000 390.5000 -104.2500 Du        
   2656 ****       254.0000 390.5000 -104.0000 Du        
   2657 ****       254.0000 390.5000 -103.7500 Du        
   2658 ****       254.0000 390.5000 -103.5000 Du        
   2659 ****       254.0000 390.5000 -103.2500 Du        
   2660 ****       254.0000 390.5000 -103.0000 Du        
   2661 ****       254.0000 390.5000 -102.7500 Du        
   2662 ****       254.0000 390.5000 -102.5000 Du        
   2663 ****       254.0000 390.5000 -102.2500 Du        
   2664 ****       254.0000 390.5000 -102.0000 Du        
   2665 ****       254.0000 390.5000 -101.7500 Du        
   2666 ****       254.0000 390.5000 -97.2500 Du        
   2667 ****       254.0000 390.5000 -97.0000 Du        
   2668 ****       254.0000 390.5000 -96.7500 Du        
   2669 ****       254.0000 390.5000 -96.2500 Du        
   2670 ****       254.0000 390.5000 -96.0000 Du        
   2671 ****       254.0000 390.7500 -104.7500 Du        
   2672 ****       254.0000 390.7500 -104.5000 Du        
   2673 ****       254.0000 390.7500 -104.2500 Du        
   2674 ****       254.0000 390.7500 -104.0000 Du        
   2675 ****       254.0000 390.7500 -103.7500 Du        
   2676 ****       254.0000 390.7500 -103.5000 Du        
   2677 ****       254.0000 390.7500 -103.2500 Du        
   2678 ****       254.0000 390.7500 -103.0000 Du        
   2679 ****       254.0000 390.7500 -102.7500 Du        
   2680 ****       254.0000 390.7500 -102.5000 Du        
   2681 ****       254.0000 390.7500 -102.2500 Du        
   2682 ****       254.0000 390.7500 -102.0000 Du        
   2683 ****       254.0000 390.7500 -101.7500 Du        
   2684 ****       254.0000 390.7500 -101.0000 Du        
   2685 ****       254.0000 390.7500 -97.2500 Du        
   2686 ****       254.0000 390.7500 -97.0000 Du        
   2687 ****       254.0000 390.7500 -96.7500 Du        
   2688 ****       254.0000 390.7500 -96.5000 Du        
   2689 ****       254.0000 390.7500 -96.2500 Du        
   2690 ****       254.0000 390.7500 -96.0000 Du        
   2691 ****       254.0000 390.7500 -95.7500 Du        
   2692 ****       254.0000 390.7500 -95.5000 Du        
   2693 ****       254.0000 390.7500 -95.2500 Du        
   2694 ****       254.0000 391.0000 -104.7500 Du        
   2695 ****       254.0000 391.0000 -104.5000 Du        
   2696 ****       254.0000 391.0000 -104.2500 Du        
   2697 ****       254.0000 391.0000 -104.0000 Du        
   2698 ****       254.0000 391.0000 -103.7500 Du        
   2699 ****       254.0000 391.0000 -103.5000 Du        
   2700 ****       254.0000 391.0000 -103.2500 Du        
   2701 ****       254.0000 391.0000 -103.0000 Du        
   2702 ****       254.0000 391.0000 -102.7500 Du        
   2703 ****       254.0000 391.0000 -102.5000 Du        
   2704 ****       254.0000 391.0000 -102.2500 Du        
   2705 ****       254.0000 391.0000 -102.0000 Du        
   2706 ****       254.0000 391.0000 -101.7500 Du        
   2707 ****       254.0000 391.0000 -101.5000 Du        
   2708 ****       254.0000 391.0000 -101.2500 Du        
   2709 ****       254.0000 391.0000 -101.0000 Du        
   2710 ****       254.0000 391.0000 -97.0000 Du        
   2711 ****       254.0000 391.0000 -96.7500 Du        
   2712 ****       254.0000 391.0000 -96.5000 Du        
   2713 ****       254.0000 391.0000 -96.2500 Du        
   2714 ****       254.0000 391.0000 -96.0000 Du        
   2715 ****       254.0000 391.0000 -95.7500 Du        
   2716 ****       254.0000 391.0000 -95.5000 Du        
   2717 ****       254.0000 391.0000 -95.2500 Du        
   2718 ****       254.0000 391.0000 -95.0000 Du        
   2719 ****       254.0000 391.0000 -94.7500 Du        
   2720 ****       254.0000 391.2500 -105.0000 Du        
   2721 ****       254.0000 391.2500 -104.7500 Du        
   2722 ****       254.0000 391.2500 -104.5000 Du        
   2723 ****       254.0000 391.2500 -104.2500 Du        
   2724 ****       254.0000 391.2500 -104.0000 Du        
   2725 ****       254.0000 391.2500 -103.7500 Du        
   2726 ****       254.0000 391.2500 -103.5000 Du        
   2727 ****       254.0000 391.2500 -103.2500 Du        
   2728 ****       254.0000 391.2500 -103.0000 Du        
   2729 ****       254.0000 391.2500 -102.7500 Du        
   2730 ****       254.0000 391.2500 -102.5000 Du        
   2731 ****       254.0000 391.2500 -102.2500 Du        
   2732 ****       254.0000 391.2500 -102.0000 Du        
   2733 ****       254.0000 391.2500 -101.7500 Du        
   2734 ****       254.0000 391.2500 -101.5000 Du        
   2735 ****       254.0000 391.2500 -101.2500 Du        
   2736 ****       254.0000 391.2500 -101.0000 Du        
   2737 ****       254.0000 391.2500 -96.7500 Du        
   2738 ****       254.0000 391.2500 -96.5000 Du        
   2739 ****       254.0000 391.2500 -96.2500 Du        
   2740 ****       254.0000 391.2500 -96.0000 Du        
   2741 ****       254.0000 391.2500 -95.7500 Du        
   2742 ****       254.0000 391.2500 -95.5000 Du        
   2743 ****       254.0000 391.2500 -95.2500 Du        
   2744 ****       254.0000 391.2500 -95.0000 Du        
   2745 ****       254.0000 391.2500 -94.7500 Du        
   2746 ****       254.0000 391.5000 -105.0000 Du        
   2747 ****       254.0000 391.5000 -104.7500 Du        
   2748 ****       254.0000 391.5000 -104.5000 Du        
   2749 ****       254.0000 391.5000 -104.2500 Du        
   2750 ****       254.0000 391.5000 -104.0000 Du        
   2751 ****       254.0000 391.5000 -103.7500 Du        
   2752 ****       254.0000 391.5000 -103.5000 Du        
   2753 ****       254.0000 391.5000 -103.2500 Du        
   2754 ****       254.0000 391.5000 -103.0000 Du        
   2755 ****       254.0000 391.5000 -102.7500 Du        
   2756 ****       254.0000 391.5000 -102.5000 Du        
   2757 ****       254.0000 391.5000 -102.2500 Du        
   2758 ****       254.0000 391.5000 -102.0000 Du        
   2759 ****       254.0000 391.5000 -101.7500 Du        
   2760 ****       254.0000 391.5000 -101.5000 Du        
   2761 ****       254.0000 391.5000 -101.2500 Du        
   2762 ****       254.0000 391.5000 -101.0000 Du        
   2763 ****       254.0000 391.5000 -96.7500 Du        
   2764 ****       254.0000 391.5000 -96.5000 Du        
   2765 ****       254.0000 391.5000 -96.2500 Du        
   2766 ****       254.0000 391.5000 -96.0000 Du        
   2767 ****       254.0000 391.5000 -95.7500 Du        
   2768 ****       254.0000 391.5000 -95.5000 Du        
   2769 ****       254.0000 391.5000 -95.2500 Du        
   2770 ****       254.0000 391.5000 -95.0000 Du        
   2771 ****       254.0000 391.5000 -94.7500 Du        
   2772 ****       254.0000 391.7500 -105.0000 Du        
   2773 ****       254.0000 391.7500 -104.7500 Du        
   2774 ****       254.0000 391.7500 -104.5000 Du        
   2775 ****       254.0000 391.7500 -104.2500 Du        
   2776 ****       254.0000 391.7500 -104.0000 Du        
   2777 ****       254.0000 391.7500 -103.7500 Du        
   2778 ****       254.0000 391.7500 -103.5000 Du        
   2779 ****       254.0000 391.7500 -103.2500 Du        
   2780 ****       254.0000 391.7500 -103.0000 Du        
   2781 ****       254.0000 391.7500 -102.7500 Du        
   2782 ****       254.0000 391.7500 -102.5000 Du        
   2783 ****       254.0000 391.7500 -102.2500 Du        
   2784 ****       254.0000 391.7500 -102.0000 Du        
   2785 ****       254.0000 391.7500 -101.7500 Du        
   2786 ****       254.0000 391.7500 -101.5000 Du        
   2787 ****       254.0000 391.7500 -101.2500 Du        
   2788 ****       254.0000 391.7500 -96.5000 Du        
   2789 ****       254.0000 391.7500 -96.2500 Du        
   2790 ****       254.0000 391.7500 -96.0000 Du        
   2791 ****       254.0000 391.7500 -95.7500 Du        
   2792 ****       254.0000 391.7500 -95.5000 Du        
   2793 ****       254.0000 391.7500 -95.2500 Du        
   2794 ****       254.0000 391.7500 -95.0000 Du        
   2795 ****       254.0000 392.0000 -105.0000 Du        
   2796 ****       254.0000 392.0000 -104.7500 Du        
   2797 ****       254.0000 392.0000 -104.5000 Du        
   2798 ****       254.0000 392.0000 -104.2500 Du        
   2799 ****       254.0000 392.0000 -104.0000 Du        
   2800 ****       254.0000 392.0000 -103.7500 Du        
   2801 ****       254.0000 392.0000 -103.5000 Du        
   2802 ****       254.0000 392.0000 -103.2500 Du        
   2803 ****       254.0000 392.0000 -103.0000 Du        
   2804 ****       254.0000 392.0000 -102.7500 Du        
   2805 ****       254.0000 392.0000 -102.5000 Du        
   2806 ****       254.0000 392.0000 -102.2500 Du        
   2807 ****       254.0000 392.0000 -102.0000 Du        
   2808 ****       254.0000 392.0000 -101.7500 Du        
   2809 ****       254.0000 392.0000 -101.5000 Du        
   2810 ****       254.0000 392.0000 -101.2500 Du        
   2811 ****       254.0000 392.0000 -96.2500 Du        
   2812 ****       254.0000 392.0000 -96.0000 Du        
   2813 ****       254.0000 392.0000 -95.7500 Du        
   2814 ****       254.0000 392.0000 -95.5000 Du        
   2815 ****       254.0000 392.2500 -105.0000 Du        
   2816 ****       254.0000 392.2500 -104.7500 Du        
   2817 ****       254.0000 392.2500 -104.5000 Du        
   2818 ****       254.0000 392.2500 -104.2500 Du        
   2819 ****       254.0000 392.2500 -104.0000 Du        
   2820 ****       254.0000 392.2500 -103.7500 Du        
   2821 ****       254.0000 392.2500 -103.5000 Du        
   2822 ****       254.0000 392.2500 -103.2500 Du        
   2823 ****       254.0000 392.2500 -103.0000 Du        
   2824 ****       254.0000 392.2500 -102.7500 Du        
   2825 ****       254.0000 392.2500 -102.5000 Du        
   2826 ****       254.0000 392.2500 -102.2500 Du        
   2827 ****       254.0000 392.2500 -102.0000 Du        
   2828 ****       254.0000 392.2500 -101.7500 Du        
   2829 ****       254.0000 392.2500 -101.5000 Du        
   2830 ****       254.0000 392.2500 -101.2500 Du        
   2831 ****       254.0000 392.5000 -105.0000 Du        
   2832 ****       254.0000 392.5000 -104.7500 Du        
   2833 ****       254.0000 392.5000 -104.5000 Du        
   2834 ****       254.0000 392.5000 -104.2500 Du        
   2835 ****       254.0000 392.5000 -104.0000 Du        
   2836 ****       254.0000 392.5000 -103.7500 Du        
   2837 ****       254.0000 392.5000 -103.5000 Du        
   2838 ****       254.0000 392.5000 -102.2500 Du        
   2839 ****       254.0000 392.5000 -102.0000 Du        
   2840 ****       254.0000 392.5000 -101.7500 Du        
   2841 ****       254.0000 392.7500 -105.0000 Du        
   2842 ****       254.2500 388.0000 -102.7500 Du        
   2843 ****       254.2500 388.0000 -102.5000 Du        
   2844 ****       254.2500 388.2500 -102.7500 Du        
   2845 ****       254.2500 388.2500 -102.5000 Du        
   2846 ****       254.2500 388.2500 -102.2500 Du        
   2847 ****       254.2500 388.5000 -102.2500 Du        
   2848 ****       254.2500 390.0000 -103.2500 Du        
   2849 ****       254.2500 390.0000 -103.0000 Du        
   2850 ****       254.2500 390.2500 -104.2500 Du        
   2851 ****       254.2500 390.2500 -104.0000 Du        
   2852 ****       254.2500 390.2500 -103.2500 Du        
   2853 ****       254.2500 390.2500 -103.0000 Du        
   2854 ****       254.2500 390.5000 -104.5000 Du        
   2855 ****       254.2500 390.5000 -104.2500 Du        
   2856 ****       254.2500 390.5000 -104.0000 Du        
   2857 ****       254.2500 390.5000 -103.7500 Du        
   2858 ****       254.2500 390.5000 -103.5000 Du        
   2859 ****       254.2500 390.5000 -103.2500 Du        
   2860 ****       254.2500 390.5000 -103.0000 Du        
   2861 ****       254.2500 390.5000 -102.7500 Du        
   2862 ****       254.2500 390.5000 -102.5000 Du        
   2863 ****       254.2500 390.5000 -102.2500 Du        
   2864 ****       254.2500 390.5000 -102.0000 Du        
   2865 ****       254.2500 390.5000 -97.2500 Du        
   2866 ****       254.2500 390.5000 -97.0000 Du        
   2867 ****       254.2500 390.7500 -104.7500 Du        
   2868 ****       254.2500 390.7500 -104.5000 Du        
   2869 ****       254.2500 390.7500 -104.2500 Du        
   2870 ****       254.2500 390.7500 -104.0000 Du        
   2871 ****       254.2500 390.7500 -103.7500 Du        
   2872 ****       254.2500 390.7500 -103.5000 Du        
   2873 ****       254.2500 390.7500 -103.2500 Du        
   2874 ****       254.2500 390.7500 -103.0000 Du        
   2875 ****       254.2500 390.7500 -102.7500 Du        
   2876 ****       254.2500 390.7500 -102.5000 Du        
   2877 ****       254.2500 390.7500 -102.2500 Du        
   2878 ****       254.2500 390.7500 -102.0000 Du        
   2879 ****       254.2500 390.7500 -101.7500 Du        
   2880 ****       254.2500 390.7500 -97.2500 Du        
   2881 ****       254.2500 390.7500 -97.0000 Du        
   2882 ****       254.2500 390.7500 -96.7500 Du        
   2883 ****       254.2500 390.7500 -96.5000 Du        
   2884 ****       254.2500 390.7500 -96.2500 Du        
   2885 ****       254.2500 390.7500 -96.0000 Du        
   2886 ****       254.2500 390.7500 -95.7500 Du        
   2887 ****       254.2500 390.7500 -95.5000 Du        
   2888 ****       254.2500 390.7500 -95.2500 Du        
   2889 ****       254.2500 390.7500 -95.0000 Du        
   2890 ****       254.2500 391.0000 -105.0000 Du        
   2891 ****       254.2500 391.0000 -104.7500 Du        
   2892 ****       254.2500 391.0000 -104.5000 Du        
   2893 ****       254.2500 391.0000 -104.2500 Du        
   2894 ****       254.2500 391.0000 -104.0000 Du        
   2895 ****       254.2500 391.0000 -103.7500 Du        
   2896 ****       254.2500 391.0000 -103.5000 Du        
   2897 ****       254.2500 391.0000 -103.2500 Du        
   2898 ****       254.2500 391.0000 -103.0000 Du        
   2899 ****       254.2500 391.0000 -102.7500 Du        
   2900 ****       254.2500 391.0000 -102.5000 Du        
   2901 ****       254.2500 391.0000 -102.2500 Du        
   2902 ****       254.2500 391.0000 -102.0000 Du        
   2903 ****       254.2500 391.0000 -101.7500 Du        
   2904 ****       254.2500 391.0000 -101.5000 Du        
   2905 ****       254.2500 391.0000 -101.2500 Du        
   2906 ****       254.2500 391.0000 -101.0000 Du        
   2907 ****       254.2500 391.0000 -100.7500 Du        
   2908 ****       254.2500 391.0000 -97.2500 Du        
   2909 ****       254.2500 391.0000 -97.0000 Du        
   2910 ****       254.2500 391.0000 -96.7500 Du        
   2911 ****       254.2500 391.0000 -96.5000 Du        
   2912 ****       254.2500 391.0000 -96.2500 Du        
   2913 ****       254.2500 391.0000 -96.0000 Du        
   2914 ****       254.2500 391.0000 -95.7500 Du        
   2915 ****       254.2500 391.0000 -95.5000 Du        
   2916 ****       254.2500 391.0000 -95.2500 Du        
   2917 ****       254.2500 391.0000 -95.0000 Du        
   2918 ****       254.2500 391.0000 -94.7500 Du        
   2919 ****       254.2500 391.2500 -105.0000 Du        
   2920 ****       254.2500 391.2500 -104.7500 Du        
   2921 ****       254.2500 391.2500 -104.5000 Du        
   2922 ****       254.2500 391.2500 -104.2500 Du        
   2923 ****       254.2500 391.2500 -104.0000 Du        
   2924 ****       254.2500 391.2500 -103.7500 Du        
   2925 ****       254.2500 391.2500 -103.5000 Du        
   2926 ****       254.2500 391.2500 -103.2500 Du        
   2927 ****       254.2500 391.2500 -103.0000 Du        
   2928 ****       254.2500 391.2500 -102.7500 Du        
   2929 ****       254.2500 391.2500 -102.5000 Du        
   2930 ****       254.2500 391.2500 -102.2500 Du        
   2931 ****       254.2500 391.2500 -102.0000 Du        
   2932 ****       254.2500 391.2500 -101.7500 Du        
   2933 ****       254.2500 391.2500 -101.5000 Du        
   2934 ****       254.2500 391.2500 -101.2500 Du        
   2935 ****       254.2500 391.2500 -101.0000 Du        
   2936 ****       254.2500 391.2500 -100.7500 Du        
   2937 ****       254.2500 391.2500 -97.0000 Du        
   2938 ****       254.2500 391.2500 -96.7500 Du        
   2939 ****       254.2500 391.2500 -96.5000 Du        
   2940 ****       254.2500 391.2500 -96.2500 Du        
   2941 ****       254.2500 391.2500 -96.0000 Du        
   2942 ****       254.2500 391.2500 -95.7500 Du        
   2943 ****       254.2500 391.2500 -95.5000 Du        
   2944 ****       254.2500 391.2500 -95.2500 Du        
   2945 ****       254.2500 391.2500 -95.0000 Du        
   2946 ****       254.2500 391.2500 -94.7500 Du        
   2947 ****       254.2500 391.5000 -105.0000 Du        
   2948 ****       254.2500 391.5000 -104.7500 Du        
   2949 ****       254.2500 391.5000 -104.5000 Du        
   2950 ****       254.2500 391.5000 -104.2500 Du        
   2951 ****       254.2500 391.5000 -104.0000 Du        
   2952 ****       254.2500 391.5000 -103.7500 Du        
   2953 ****       254.2500 391.5000 -103.5000 Du        
   2954 ****       254.2500 391.5000 -103.2500 Du        
   2955 ****       254.2500 391.5000 -103.0000 Du        
   2956 ****       254.2500 391.5000 -102.7500 Du        
   2957 ****       254.2500 391.5000 -102.5000 Du        
   2958 ****       254.2500 391.5000 -102.2500 Du        
   2959 ****       254.2500 391.5000 -102.0000 Du        
   2960 ****       254.2500 391.5000 -101.7500 Du        
   2961 ****       254.2500 391.5000 -101.5000 Du        
   2962 ****       254.2500 391.5000 -101.2500 Du        
   2963 ****       254.2500 391.5000 -101.0000 Du        
   2964 ****       254.2500 391.5000 -96.7500 Du        
   2965 ****       254.2500 391.5000 -96.5000 Du        
   2966 ****       254.2500 391.5000 -96.2500 Du        
   2967 ****       254.2500 391.5000 -96.0000 Du        
   2968 ****       254.2500 391.5000 -95.7500 Du        
   2969 ****       254.2500 391.5000 -95.5000 Du        
   2970 ****       254.2500 391.5000 -95.2500 Du        
   2971 ****       254.2500 391.5000 -95.0000 Du        
   2972 ****       254.2500 391.5000 -94.7500 Du        
   2973 ****       254.2500 391.7500 -105.0000 Du        
   2974 ****       254.2500 391.7500 -104.7500 Du        
   2975 ****       254.2500 391.7500 -104.5000 Du        
   2976 ****       254.2500 391.7500 -104.2500 Du        
   2977 ****       254.2500 391.7500 -104.0000 Du        
   2978 ****       254.2500 391.7500 -103.7500 Du        
   2979 ****       254.2500 391.7500 -103.5000 Du        
   2980 ****       254.2500 391.7500 -103.2500 Du        
   2981 ****       254.2500 391.7500 -103.0000 Du        
   2982 ****       254.2500 391.7500 -102.7500 Du        
   2983 ****       254.2500 391.7500 -102.5000 Du        
   2984 ****       254.2500 391.7500 -102.2500 Du        
   2985 ****       254.2500 391.7500 -102.0000 Du        
   2986 ****       254.2500 391.7500 -101.7500 Du        
   2987 ****       254.2500 391.7500 -101.5000 Du        
   2988 ****       254.2500 391.7500 -101.2500 Du        
   2989 ****       254.2500 391.7500 -101.0000 Du        
   2990 ****       254.2500 391.7500 -96.5000 Du        
   2991 ****       254.2500 391.7500 -96.2500 Du        
   2992 ****       254.2500 391.7500 -96.0000 Du        
   2993 ****       254.2500 391.7500 -95.7500 Du        
   2994 ****       254.2500 391.7500 -95.5000 Du        
   2995 ****       254.2500 391.7500 -95.2500 Du        
   2996 ****       254.2500 391.7500 -95.0000 Du        
   2997 ****       254.2500 392.0000 -105.2500 Du        
   2998 ****       254.2500 392.0000 -105.0000 Du        
   2999 ****       254.2500 392.0000 -104.7500 Du        
   3000 ****       254.2500 392.0000 -104.5000 Du        
   3001 ****       254.2500 392.0000 -104.2500 Du        
   3002 ****       254.2500 392.0000 -104.0000 Du        
   3003 ****       254.2500 392.0000 -103.7500 Du        
   3004 ****       254.2500 392.0000 -103.5000 Du        
   3005 ****       254.2500 392.0000 -103.2500 Du        
   3006 ****       254.2500 392.0000 -103.0000 Du        
   3007 ****       254.2500 392.0000 -102.7500 Du        
   3008 ****       254.2500 392.0000 -102.5000 Du        
   3009 ****       254.2500 392.0000 -102.2500 Du        
   3010 ****       254.2500 392.0000 -102.0000 Du        
   3011 ****       254.2500 392.0000 -101.7500 Du        
   3012 ****       254.2500 392.0000 -101.5000 Du        
   3013 ****       254.2500 392.0000 -101.2500 Du        
   3014 ****       254.2500 392.0000 -101.0000 Du        
   3015 ****       254.2500 392.0000 -96.2500 Du        
   3016 ****       254.2500 392.0000 -96.0000 Du        
   3017 ****       254.2500 392.0000 -95.7500 Du        
   3018 ****       254.2500 392.0000 -95.5000 Du        
   3019 ****       254.2500 392.2500 -105.2500 Du        
   3020 ****       254.2500 392.2500 -105.0000 Du        
   3021 ****       254.2500 392.2500 -104.7500 Du        
   3022 ****       254.2500 392.2500 -104.5000 Du        
   3023 ****       254.2500 392.2500 -104.2500 Du        
   3024 ****       254.2500 392.2500 -104.0000 Du        
   3025 ****       254.2500 392.2500 -103.7500 Du        
   3026 ****       254.2500 392.2500 -103.5000 Du        
   3027 ****       254.2500 392.2500 -103.2500 Du        
   3028 ****       254.2500 392.2500 -103.0000 Du        
   3029 ****       254.2500 392.2500 -102.7500 Du        
   3030 ****       254.2500 392.2500 -102.5000 Du        
   3031 ****       254.2500 392.2500 -102.2500 Du        
   3032 ****       254.2500 392.2500 -102.0000 Du        
   3033 ****       254.2500 392.2500 -101.7500 Du        
   3034 ****       254.2500 392.2500 -101.5000 Du        
   3035 ****       254.2500 392.2500 -101.2500 Du        
   3036 ****       254.2500 392.5000 -105.2500 Du        
   3037 ****       254.2500 392.5000 -105.0000 Du        
   3038 ****       254.2500 392.5000 -104.7500 Du        
   3039 ****       254.2500 392.5000 -104.5000 Du        
   3040 ****       254.2500 392.5000 -104.2500 Du        
   3041 ****       254.2500 392.5000 -104.0000 Du        
   3042 ****       254.2500 392.5000 -103.7500 Du        
   3043 ****       254.2500 392.5000 -102.7500 Du        
   3044 ****       254.2500 392.5000 -102.5000 Du        
   3045 ****       254.2500 392.5000 -102.2500 Du        
   3046 ****       254.2500 392.5000 -102.0000 Du        
   3047 ****       254.2500 392.5000 -101.7500 Du        
   3048 ****       254.2500 392.5000 -101.5000 Du        
   3049 ****       254.5000 388.0000 -102.7500 Du        
   3050 ****       254.5000 388.2500 -103.0000 Du        
   3051 ****       254.5000 388.2500 -102.7500 Du        
   3052 ****       254.5000 390.7500 -105.0000 Du        
   3053 ****       254.5000 390.7500 -104.7500 Du        
   3054 ****       254.5000 390.7500 -104.5000 Du        
   3055 ****       254.5000 390.7500 -104.2500 Du        
   3056 ****       254.5000 390.7500 -104.0000 Du        
   3057 ****       254.5000 390.7500 -103.7500 Du        
   3058 ****       254.5000 391.0000 -105.0000 Du        
   3059 ****       254.5000 391.0000 -104.7500 Du        
   3060 ****       254.5000 391.0000 -104.5000 Du        
   3061 ****       254.5000 391.0000 -104.2500 Du        
   3062 ****       254.5000 391.0000 -104.0000 Du        
   3063 ****       254.5000 391.0000 -103.7500 Du        
   3064 ****       254.5000 391.0000 -103.2500 Du        
   3065 ****       254.5000 391.0000 -103.0000 Du        
   3066 ****       254.5000 391.0000 -102.7500 Du        
   3067 ****       254.5000 391.2500 -105.0000 Du        
   3068 ****       254.5000 391.2500 -104.7500 Du        
   3069 ****       254.5000 391.2500 -104.5000 Du        
   3070 ****       254.5000 391.2500 -104.2500 Du        
   3071 ****       254.5000 391.2500 -104.0000 Du        
   3072 ****       254.5000 391.2500 -103.7500 Du        
   3073 ****       254.5000 391.2500 -103.5000 Du        
   3074 ****       254.5000 391.2500 -103.2500 Du        
   3075 ****       254.5000 391.2500 -103.0000 Du        
   3076 ****       254.5000 391.2500 -102.7500 Du        
   3077 ****       254.5000 391.2500 -102.2500 Du        
   3078 ****       254.5000 391.2500 -102.0000 Du        
   3079 ****       254.5000 391.2500 -101.7500 Du        
   3080 ****       254.5000 391.2500 -101.2500 Du        
   3081 ****       254.5000 391.2500 -101.0000 Du        
   3082 ****       254.5000 391.5000 -105.0000 Du        
   3083 ****       254.5000 391.5000 -104.7500 Du        
   3084 ****       254.5000 391.5000 -104.5000 Du        
   3085 ****       254.5000 391.5000 -104.2500 Du        
   3086 ****       254.5000 391.5000 -104.0000 Du        
   3087 ****       254.5000 391.5000 -103.7500 Du        
   3088 ****       254.5000 391.5000 -103.5000 Du        
   3089 ****       254.5000 391.5000 -103.2500 Du        
   3090 ****       254.5000 391.5000 -103.0000 Du        
   3091 ****       254.5000 391.5000 -102.7500 Du        
   3092 ****       254.5000 391.5000 -102.5000 Du        
   3093 ****       254.5000 391.5000 -102.2500 Du        
   3094 ****       254.5000 391.5000 -102.0000 Du        
   3095 ****       254.5000 391.5000 -101.7500 Du        
   3096 ****       254.5000 391.5000 -101.5000 Du        
   3097 ****       254.5000 391.5000 -101.2500 Du        
   3098 ****       254.5000 391.5000 -101.0000 Du        
   3099 ****       254.5000 391.5000 -100.7500 Du        
   3100 ****       254.5000 391.7500 -105.0000 Du        
   3101 ****       254.5000 391.7500 -104.7500 Du        
   3102 ****       254.5000 391.7500 -104.5000 Du        
   3103 ****       254.5000 391.7500 -104.2500 Du        
   3104 ****       254.5000 391.7500 -104.0000 Du        
   3105 ****       254.5000 391.7500 -103.7500 Du        
   3106 ****       254.5000 391.7500 -103.5000 Du        
   3107 ****       254.5000 391.7500 -103.2500 Du        
   3108 ****       254.5000 391.7500 -103.0000 Du        
   3109 ****       254.5000 391.7500 -102.7500 Du        
   3110 ****       254.5000 391.7500 -102.5000 Du        
   3111 ****       254.5000 391.7500 -102.2500 Du        
   3112 ****       254.5000 391.7500 -102.0000 Du        
   3113 ****       254.5000 391.7500 -101.7500 Du        
   3114 ****       254.5000 391.7500 -101.5000 Du        
   3115 ****       254.5000 391.7500 -101.2500 Du        
   3116 ****       254.5000 391.7500 -101.0000 Du        
   3117 ****       254.5000 391.7500 -100.7500 Du        
   3118 ****       254.5000 392.0000 -105.0000 Du        
   3119 ****       254.5000 392.0000 -104.7500 Du        
   3120 ****       254.5000 392.0000 -104.5000 Du        
   3121 ****       254.5000 392.0000 -104.2500 Du        
   3122 ****       254.5000 392.0000 -104.0000 Du        
   3123 ****       254.5000 392.0000 -103.7500 Du        
   3124 ****       254.5000 392.0000 -103.5000 Du        
   3125 ****       254.5000 392.0000 -103.2500 Du        
   3126 ****       254.5000 392.0000 -103.0000 Du        
   3127 ****       254.5000 392.0000 -102.7500 Du        
   3128 ****       254.5000 392.0000 -102.5000 Du        
   3129 ****       254.5000 392.0000 -102.2500 Du        
   3130 ****       254.5000 392.0000 -102.0000 Du        
   3131 ****       254.5000 392.0000 -101.7500 Du        
   3132 ****       254.5000 392.0000 -101.5000 Du        
   3133 ****       254.5000 392.0000 -101.2500 Du        
   3134 ****       254.5000 392.0000 -101.0000 Du        
   3135 ****       254.5000 392.2500 -105.0000 Du        
   3136 ****       254.5000 392.2500 -104.7500 Du        
   3137 ****       254.5000 392.2500 -104.5000 Du        
   3138 ****       254.5000 392.2500 -104.2500 Du        
   3139 ****       254.5000 392.2500 -104.0000 Du        
   3140 ****       254.5000 392.2500 -103.7500 Du        
   3141 ****       254.5000 392.2500 -103.5000 Du        
   3142 ****       254.5000 392.2500 -103.2500 Du        
   3143 ****       254.5000 392.2500 -103.0000 Du        
   3144 ****       254.5000 392.2500 -102.7500 Du        
   3145 ****       254.5000 392.2500 -102.5000 Du        
   3146 ****       254.5000 392.2500 -102.2500 Du        
   3147 ****       254.5000 392.2500 -102.0000 Du        
   3148 ****       254.5000 392.2500 -101.7500 Du        
   3149 ****       254.5000 392.2500 -101.5000 Du        
   3150 ****       254.5000 392.2500 -101.2500 Du        
   3151 ****       254.5000 392.5000 -102.7500 Du        
   3152 ****       254.5000 392.5000 -102.2500 Du        
   3153 ****       254.5000 392.5000 -102.0000 Du        
   3154 ****       254.5000 392.5000 -101.7500 Du        
   3155 ****       254.5000 392.5000 -101.5000 Du        
   3156 ****       254.5000 394.2500 -108.0000 Du        
   3157 ****       254.5000 394.2500 -107.7500 Du        
   3158 ****       254.7500 387.7500 -102.7500 Du        
   3159 ****       254.7500 388.0000 -103.0000 Du        
   3160 ****       254.7500 388.0000 -102.7500 Du        
   3161 ****       254.7500 388.2500 -103.0000 Du        
   3162 ****       254.7500 388.2500 -102.7500 Du        
   3163 ****       254.7500 390.7500 -105.0000 Du        
   3164 ****       254.7500 390.7500 -104.7500 Du        
   3165 ****       254.7500 390.7500 -104.2500 Du        
   3166 ****       254.7500 390.7500 -104.0000 Du        
   3167 ****       254.7500 391.0000 -105.0000 Du        
   3168 ****       254.7500 391.0000 -104.7500 Du        
   3169 ****       254.7500 391.0000 -104.5000 Du        
   3170 ****       254.7500 391.0000 -104.2500 Du        
   3171 ****       254.7500 391.0000 -104.0000 Du        
   3172 ****       254.7500 391.0000 -103.7500 Du        
   3173 ****       254.7500 391.0000 -103.2500 Du        
   3174 ****       254.7500 391.0000 -103.0000 Du        
   3175 ****       254.7500 391.0000 -102.7500 Du        
   3176 ****       254.7500 391.0000 -100.5000 Du        
   3177 ****       254.7500 391.2500 -105.2500 Du        
   3178 ****       254.7500 391.2500 -105.0000 Du        
   3179 ****       254.7500 391.2500 -104.7500 Du        
   3180 ****       254.7500 391.2500 -104.5000 Du        
   3181 ****       254.7500 391.2500 -104.2500 Du        
   3182 ****       254.7500 391.2500 -104.0000 Du        
   3183 ****       254.7500 391.2500 -103.7500 Du        
   3184 ****       254.7500 391.2500 -103.5000 Du        
   3185 ****       254.7500 391.2500 -103.2500 Du        
   3186 ****       254.7500 391.2500 -103.0000 Du        
   3187 ****       254.7500 391.2500 -102.7500 Du        
   3188 ****       254.7500 391.2500 -102.2500 Du        
   3189 ****       254.7500 391.2500 -101.2500 Du        
   3190 ****       254.7500 391.2500 -101.0000 Du        
   3191 ****       254.7500 391.2500 -100.5000 Du        
   3192 ****       254.7500 391.5000 -105.0000 Du        
   3193 ****       254.7500 391.5000 -104.7500 Du        
   3194 ****       254.7500 391.5000 -104.5000 Du        
   3195 ****       254.7500 391.5000 -104.2500 Du        
   3196 ****       254.7500 391.5000 -104.0000 Du        
   3197 ****       254.7500 391.5000 -103.7500 Du        
   3198 ****       254.7500 391.5000 -103.5000 Du        
   3199 ****       254.7500 391.5000 -103.2500 Du        
   3200 ****       254.7500 391.5000 -103.0000 Du        
   3201 ****       254.7500 391.5000 -102.7500 Du        
   3202 ****       254.7500 391.5000 -102.5000 Du        
   3203 ****       254.7500 391.5000 -102.2500 Du        
   3204 ****       254.7500 391.5000 -102.0000 Du        
   3205 ****       254.7500 391.5000 -101.7500 Du        
   3206 ****       254.7500 391.5000 -101.5000 Du        
   3207 ****       254.7500 391.5000 -101.2500 Du        
   3208 ****       254.7500 391.5000 -101.0000 Du        
   3209 ****       254.7500 391.5000 -100.7500 Du        
   3210 ****       254.7500 391.5000 -100.5000 Du        
   3211 ****       254.7500 391.7500 -105.0000 Du        
   3212 ****       254.7500 391.7500 -104.7500 Du        
   3213 ****       254.7500 391.7500 -104.5000 Du        
   3214 ****       254.7500 391.7500 -104.2500 Du        
   3215 ****       254.7500 391.7500 -104.0000 Du        
   3216 ****       254.7500 391.7500 -103.7500 Du        
   3217 ****       254.7500 391.7500 -103.5000 Du        
   3218 ****       254.7500 391.7500 -103.2500 Du        
   3219 ****       254.7500 391.7500 -103.0000 Du        
   3220 ****       254.7500 391.7500 -102.7500 Du        
   3221 ****       254.7500 391.7500 -102.5000 Du        
   3222 ****       254.7500 391.7500 -102.2500 Du        
   3223 ****       254.7500 391.7500 -102.0000 Du        
   3224 ****       254.7500 391.7500 -101.7500 Du        
   3225 ****       254.7500 391.7500 -101.5000 Du        
   3226 ****       254.7500 391.7500 -101.2500 Du        
   3227 ****       254.7500 391.7500 -101.0000 Du        
   3228 ****       254.7500 392.0000 -105.2500 Du        
   3229 ****       254.7500 392.0000 -105.0000 Du        
   3230 ****       254.7500 392.0000 -104.7500 Du        
   3231 ****       254.7500 392.0000 -104.5000 Du        
   3232 ****       254.7500 392.0000 -104.2500 Du        
   3233 ****       254.7500 392.0000 -104.0000 Du        
   3234 ****       254.7500 392.0000 -103.7500 Du        
   3235 ****       254.7500 392.0000 -103.5000 Du        
   3236 ****       254.7500 392.0000 -103.2500 Du        
   3237 ****       254.7500 392.0000 -103.0000 Du        
   3238 ****       254.7500 392.0000 -102.7500 Du        
   3239 ****       254.7500 392.0000 -102.5000 Du        
   3240 ****       254.7500 392.0000 -102.2500 Du        
   3241 ****       254.7500 392.0000 -102.0000 Du        
   3242 ****       254.7500 392.0000 -101.7500 Du        
   3243 ****       254.7500 392.0000 -101.5000 Du        
   3244 ****       254.7500 392.0000 -101.2500 Du        
   3245 ****       254.7500 392.0000 -101.0000 Du        
   3246 ****       254.7500 392.2500 -105.0000 Du        
   3247 ****       254.7500 392.2500 -104.7500 Du        
   3248 ****       254.7500 392.2500 -104.5000 Du        
   3249 ****       254.7500 392.2500 -104.2500 Du        
   3250 ****       254.7500 392.2500 -104.0000 Du        
   3251 ****       254.7500 392.2500 -103.7500 Du        
   3252 ****       254.7500 392.2500 -103.5000 Du        
   3253 ****       254.7500 392.2500 -103.2500 Du        
   3254 ****       254.7500 392.2500 -103.0000 Du        
   3255 ****       254.7500 392.2500 -102.7500 Du        
   3256 ****       254.7500 392.2500 -102.5000 Du        
   3257 ****       254.7500 392.2500 -102.2500 Du        
   3258 ****       254.7500 392.2500 -102.0000 Du        
   3259 ****       254.7500 392.2500 -101.7500 Du        
   3260 ****       254.7500 392.2500 -101.5000 Du        
   3261 ****       254.7500 392.2500 -101.2500 Du        
   3262 ****       254.7500 392.5000 -102.7500 Du        
   3263 ****       254.7500 392.5000 -102.5000 Du        
   3264 ****       254.7500 392.5000 -102.2500 Du        
   3265 ****       254.7500 392.5000 -102.0000 Du        
   3266 ****       254.7500 392.5000 -101.7500 Du        
   3267 ****       254.7500 392.5000 -101.5000 Du        
   3268 ****       254.7500 394.0000 -108.0000 Du        
   3269 ****       254.7500 394.0000 -107.7500 Du        
   3270 ****       254.7500 394.0000 -107.5000 Du        
   3271 ****       254.7500 394.2500 -108.0000 Du        
   3272 ****       254.7500 394.2500 -107.7500 Du        
   3273 ****       254.7500 394.2500 -107.5000 Du        
   3274 ****       254.7500 394.5000 -108.0000 Du        
   3275 ****       254.7500 394.5000 -107.7500 Du        
   3276 ****       254.7500 394.7500 -108.0000 Du        
   3277 ****       254.7500 394.7500 -107.7500 Du        
   3278 ****       254.7500 395.0000 -108.0000 Du        
   3279 ****       254.7500 395.0000 -107.7500 Du        
   3280 ****       255.0000 387.7500 -103.0000 Du        
   3281 ****       255.0000 387.7500 -102.7500 Du        
   3282 ****       255.0000 388.0000 -103.0000 Du        
   3283 ****       255.0000 388.0000 -102.7500 Du        
   3284 ****       255.0000 388.2500 -103.0000 Du        
   3285 ****       255.0000 390.7500 -105.0000 Du        
   3286 ****       255.0000 391.0000 -105.2500 Du        
   3287 ****       255.0000 391.0000 -105.0000 Du        
   3288 ****       255.0000 391.0000 -104.7500 Du        
   3289 ****       255.0000 391.0000 -104.5000 Du        
   3290 ****       255.0000 391.0000 -104.2500 Du        
   3291 ****       255.0000 391.0000 -104.0000 Du        
   3292 ****       255.0000 391.0000 -103.7500 Du        
   3293 ****       255.0000 391.0000 -100.5000 Du        
   3294 ****       255.0000 391.0000 -100.2500 Du        
   3295 ****       255.0000 391.2500 -105.2500 Du        
   3296 ****       255.0000 391.2500 -105.0000 Du        
   3297 ****       255.0000 391.2500 -104.7500 Du        
   3298 ****       255.0000 391.2500 -104.5000 Du        
   3299 ****       255.0000 391.2500 -104.2500 Du        
   3300 ****       255.0000 391.2500 -104.0000 Du        
   3301 ****       255.0000 391.2500 -103.7500 Du        
   3302 ****       255.0000 391.2500 -103.2500 Du        
   3303 ****       255.0000 391.2500 -103.0000 Du        
   3304 ****       255.0000 391.2500 -102.7500 Du        
   3305 ****       255.0000 391.2500 -100.5000 Du        
   3306 ****       255.0000 391.5000 -105.2500 Du        
   3307 ****       255.0000 391.5000 -105.0000 Du        
   3308 ****       255.0000 391.5000 -104.7500 Du        
   3309 ****       255.0000 391.5000 -104.5000 Du        
   3310 ****       255.0000 391.5000 -104.2500 Du        
   3311 ****       255.0000 391.5000 -104.0000 Du        
   3312 ****       255.0000 391.5000 -103.7500 Du        
   3313 ****       255.0000 391.5000 -103.5000 Du        
   3314 ****       255.0000 391.5000 -103.2500 Du        
   3315 ****       255.0000 391.5000 -103.0000 Du        
   3316 ****       255.0000 391.5000 -102.7500 Du        
   3317 ****       255.0000 391.5000 -102.5000 Du        
   3318 ****       255.0000 391.5000 -102.2500 Du        
   3319 ****       255.0000 391.5000 -102.0000 Du        
   3320 ****       255.0000 391.5000 -101.7500 Du        
   3321 ****       255.0000 391.5000 -101.5000 Du        
   3322 ****       255.0000 391.5000 -101.2500 Du        
   3323 ****       255.0000 391.5000 -101.0000 Du        
   3324 ****       255.0000 391.5000 -100.7500 Du        
   3325 ****       255.0000 391.7500 -105.2500 Du        
   3326 ****       255.0000 391.7500 -105.0000 Du        
   3327 ****       255.0000 391.7500 -104.7500 Du        
   3328 ****       255.0000 391.7500 -104.5000 Du        
   3329 ****       255.0000 391.7500 -104.2500 Du        
   3330 ****       255.0000 391.7500 -104.0000 Du        
   3331 ****       255.0000 391.7500 -103.7500 Du        
   3332 ****       255.0000 391.7500 -103.5000 Du        
   3333 ****       255.0000 391.7500 -103.2500 Du        
   3334 ****       255.0000 391.7500 -103.0000 Du        
   3335 ****       255.0000 391.7500 -102.7500 Du        
   3336 ****       255.0000 391.7500 -102.5000 Du        
   3337 ****       255.0000 391.7500 -102.2500 Du        
   3338 ****       255.0000 391.7500 -102.0000 Du        
   3339 ****       255.0000 391.7500 -101.7500 Du        
   3340 ****       255.0000 391.7500 -101.5000 Du        
   3341 ****       255.0000 391.7500 -101.2500 Du        
   3342 ****       255.0000 391.7500 -101.0000 Du        
   3343 ****       255.0000 392.0000 -105.2500 Du        
   3344 ****       255.0000 392.0000 -105.0000 Du        
   3345 ****       255.0000 392.0000 -104.7500 Du        
   3346 ****       255.0000 392.0000 -104.5000 Du        
   3347 ****       255.0000 392.0000 -104.2500 Du        
   3348 ****       255.0000 392.0000 -104.0000 Du        
   3349 ****       255.0000 392.0000 -103.7500 Du        
   3350 ****       255.0000 392.0000 -103.5000 Du        
   3351 ****       255.0000 392.0000 -103.2500 Du        
   3352 ****       255.0000 392.0000 -103.0000 Du        
   3353 ****       255.0000 392.0000 -102.7500 Du        
   3354 ****       255.0000 392.0000 -102.5000 Du        
   3355 ****       255.0000 392.0000 -102.2500 Du        
   3356 ****       255.0000 392.0000 -102.0000 Du        
   3357 ****       255.0000 392.0000 -101.7500 Du        
   3358 ****       255.0000 392.0000 -101.5000 Du        
   3359 ****       255.0000 392.0000 -101.2500 Du        
   3360 ****       255.0000 392.2500 -105.2500 Du        
   3361 ****       255.0000 392.2500 -105.0000 Du        
   3362 ****       255.0000 392.2500 -104.2500 Du        
   3363 ****       255.0000 392.2500 -104.0000 Du        
   3364 ****       255.0000 392.2500 -103.0000 Du        
   3365 ****       255.0000 392.2500 -102.7500 Du        
   3366 ****       255.0000 392.2500 -102.5000 Du        
   3367 ****       255.0000 392.2500 -102.2500 Du        
   3368 ****       255.0000 392.2500 -102.0000 Du        
   3369 ****       255.0000 392.2500 -101.7500 Du        
   3370 ****       255.0000 392.2500 -101.5000 Du        
   3371 ****       255.0000 392.5000 -102.2500 Du        
   3372 ****       255.0000 392.5000 -102.0000 Du        
   3373 ****       255.0000 392.5000 -101.7500 Du        
   3374 ****       255.0000 393.7500 -107.7500 Du        
   3375 ****       255.0000 394.0000 -107.7500 Du        
   3376 ****       255.0000 394.0000 -107.5000 Du        
   3377 ****       255.0000 394.2500 -107.7500 Du        
   3378 ****       255.0000 394.2500 -107.5000 Du        
   3379 ****       255.0000 394.5000 -108.0000 Du        
   3380 ****       255.0000 394.5000 -107.7500 Du        
   3381 ****       255.0000 394.5000 -107.5000 Du        
   3382 ****       255.0000 394.7500 -107.7500 Du        
   3383 ****       255.0000 395.0000 -107.7500 Du        
   3384 ****       255.2500 387.2500 -102.7500 Du        
   3385 ****       255.2500 387.5000 -103.0000 Du        
   3386 ****       255.2500 387.5000 -102.7500 Du        
   3387 ****       255.2500 387.7500 -103.0000 Du        
   3388 ****       255.2500 387.7500 -102.7500 Du        
   3389 ****       255.2500 388.0000 -103.2500 Du        
   3390 ****       255.2500 388.0000 -103.0000 Du        
   3391 ****       255.2500 388.0000 -102.7500 Du        
   3392 ****       255.2500 388.2500 -103.0000 Du        
   3393 ****       255.2500 391.0000 -105.2500 Du        
   3394 ****       255.2500 391.2500 -105.5000 Du        
   3395 ****       255.2500 391.2500 -105.2500 Du        
   3396 ****       255.2500 391.2500 -105.0000 Du        
   3397 ****       255.2500 391.2500 -104.7500 Du        
   3398 ****       255.2500 391.2500 -104.5000 Du        
   3399 ****       255.2500 391.2500 -104.2500 Du        
   3400 ****       255.2500 391.5000 -105.2500 Du        
   3401 ****       255.2500 391.5000 -105.0000 Du        
   3402 ****       255.2500 391.5000 -104.7500 Du        
   3403 ****       255.2500 391.5000 -104.5000 Du        
   3404 ****       255.2500 391.5000 -104.2500 Du        
   3405 ****       255.2500 391.5000 -104.0000 Du        
   3406 ****       255.2500 391.5000 -103.7500 Du        
   3407 ****       255.2500 391.5000 -103.2500 Du        
   3408 ****       255.2500 391.5000 -103.0000 Du        
   3409 ****       255.2500 391.5000 -102.7500 Du        
   3410 ****       255.2500 391.5000 -102.5000 Du        
   3411 ****       255.2500 391.5000 -102.2500 Du        
   3412 ****       255.2500 391.5000 -102.0000 Du        
   3413 ****       255.2500 391.5000 -101.7500 Du        
   3414 ****       255.2500 391.5000 -101.5000 Du        
   3415 ****       255.2500 391.5000 -101.2500 Du        
   3416 ****       255.2500 391.5000 -101.0000 Du        
   3417 ****       255.2500 391.7500 -105.5000 Du        
   3418 ****       255.2500 391.7500 -105.2500 Du        
   3419 ****       255.2500 391.7500 -105.0000 Du        
   3420 ****       255.2500 391.7500 -104.7500 Du        
   3421 ****       255.2500 391.7500 -104.5000 Du        
   3422 ****       255.2500 391.7500 -104.2500 Du        
   3423 ****       255.2500 391.7500 -104.0000 Du        
   3424 ****       255.2500 391.7500 -103.7500 Du        
   3425 ****       255.2500 391.7500 -103.5000 Du        
   3426 ****       255.2500 391.7500 -103.2500 Du        
   3427 ****       255.2500 391.7500 -103.0000 Du        
   3428 ****       255.2500 391.7500 -102.7500 Du        
   3429 ****       255.2500 391.7500 -102.5000 Du        
   3430 ****       255.2500 391.7500 -102.2500 Du        
   3431 ****       255.2500 391.7500 -102.0000 Du        
   3432 ****       255.2500 391.7500 -101.7500 Du        
   3433 ****       255.2500 391.7500 -101.5000 Du        
   3434 ****       255.2500 391.7500 -101.2500 Du        
   3435 ****       255.2500 392.0000 -105.5000 Du        
   3436 ****       255.2500 392.0000 -105.2500 Du        
   3437 ****       255.2500 392.0000 -105.0000 Du        
   3438 ****       255.2500 392.0000 -104.7500 Du        
   3439 ****       255.2500 392.0000 -104.5000 Du        
   3440 ****       255.2500 392.0000 -104.2500 Du        
   3441 ****       255.2500 392.0000 -104.0000 Du        
   3442 ****       255.2500 392.0000 -103.7500 Du        
   3443 ****       255.2500 392.0000 -103.5000 Du        
   3444 ****       255.2500 392.0000 -103.2500 Du        
   3445 ****       255.2500 392.0000 -103.0000 Du        
   3446 ****       255.2500 392.0000 -102.7500 Du        
   3447 ****       255.2500 392.0000 -102.5000 Du        
   3448 ****       255.2500 392.0000 -102.2500 Du        
   3449 ****       255.2500 392.0000 -102.0000 Du        
   3450 ****       255.2500 392.0000 -101.7500 Du        
   3451 ****       255.2500 392.0000 -101.5000 Du        
   3452 ****       255.2500 392.2500 -105.5000 Du        
   3453 ****       255.2500 392.2500 -105.2500 Du        
   3454 ****       255.2500 392.2500 -102.5000 Du        
   3455 ****       255.2500 392.2500 -102.2500 Du        
   3456 ****       255.2500 392.2500 -102.0000 Du        
   3457 ****       255.2500 392.2500 -101.7500 Du        
   3458 ****       255.2500 392.2500 -101.5000 Du        
   3459 ****       255.2500 392.5000 -102.0000 Du        
   3460 ****       255.2500 393.7500 -107.2500 Du        
   3461 ****       255.2500 394.0000 -107.5000 Du        
   3462 ****       255.2500 394.0000 -107.2500 Du        
   3463 ****       255.2500 394.2500 -107.5000 Du        
   3464 ****       255.2500 394.5000 -107.7500 Du        
   3465 ****       255.5000 387.2500 -103.0000 Du        
   3466 ****       255.5000 387.2500 -102.7500 Du        
   3467 ****       255.5000 391.7500 -102.2500 Du        
   3468 ****       255.5000 391.7500 -102.0000 Du        
   3469 ****       255.5000 391.7500 -101.7500 Du        
   3470 ****       255.5000 392.0000 -102.2500 Du        
   3471 ****       255.5000 392.0000 -102.0000 Du        
   3472 ****       255.7500 387.2500 -103.0000 Du        
   3473 ****       255.7500 387.2500 -102.7500 Du        
   3474 ****       255.7500 390.0000 -106.0000 Du        
   3475 ****       255.7500 390.0000 -105.7500 Du        
   3476 ****       255.7500 390.2500 -106.2500 Du        
   3477 ****       255.7500 390.2500 -106.0000 Du        
   3478 ****       255.7500 390.2500 -105.7500 Du        
   3479 ****       255.7500 391.7500 -102.0000 Du        
   3480 ****       255.7500 392.0000 -105.7500 Du        
   3481 ****       256.0000 387.0000 -103.0000 Du        
   3482 ****       256.0000 387.2500 -103.0000 Du        
   3483 ****       256.0000 387.2500 -102.7500 Du        
   3484 ****       256.0000 390.0000 -106.5000 Du        
   3485 ****       256.0000 390.0000 -106.2500 Du        
   3486 ****       256.0000 390.0000 -106.0000 Du        
   3487 ****       256.0000 390.0000 -105.7500 Du        
   3488 ****       256.0000 390.2500 -106.5000 Du        
   3489 ****       256.0000 390.2500 -106.2500 Du        
   3490 ****       256.0000 390.2500 -106.0000 Du        
   3491 ****       256.0000 390.2500 -105.7500 Du        
   3492 ****       256.2500 389.7500 -107.0000 Du        
   3493 ****       256.2500 389.7500 -106.7500 Du        
   3494 ****       256.2500 389.7500 -106.5000 Du        
   3495 ****       256.2500 389.7500 -106.2500 Du        
   3496 ****       256.2500 389.7500 -106.0000 Du        
   3497 ****       256.2500 390.0000 -107.0000 Du        
   3498 ****       256.2500 390.0000 -106.7500 Du        
   3499 ****       256.2500 390.0000 -106.5000 Du        
   3500 ****       256.2500 390.0000 -106.2500 Du        
   3501 ****       256.2500 390.0000 -106.0000 Du        
   3502 ****       256.2500 390.0000 -105.7500 Du        
   3503 ****       256.2500 390.2500 -107.0000 Du        
   3504 ****       256.2500 390.2500 -106.7500 Du        
   3505 ****       256.2500 390.2500 -106.5000 Du        
   3506 ****       256.2500 390.2500 -106.2500 Du        
   3507 ****       256.2500 390.2500 -106.0000 Du        
   3508 ****       256.2500 390.2500 -105.7500 Du        
   3509 ****       256.2500 390.5000 -106.7500 Du        
   3510 ****       256.2500 390.7500 -106.7500 Du        
   3511 ****       256.5000 389.7500 -107.0000 Du        
   3512 ****       256.5000 389.7500 -106.7500 Du        
   3513 ****       256.5000 389.7500 -106.5000 Du        
   3514 ****       256.5000 389.7500 -106.2500 Du        
   3515 ****       256.5000 390.0000 -107.2500 Du        
   3516 ****       256.5000 390.0000 -107.0000 Du        
   3517 ****       256.5000 390.0000 -106.7500 Du        
   3518 ****       256.5000 390.0000 -106.5000 Du        
   3519 ****       256.5000 390.0000 -106.2500 Du        
   3520 ****       256.5000 390.0000 -106.0000 Du        
   3521 ****       256.5000 390.2500 -107.2500 Du        
   3522 ****       256.5000 390.2500 -107.0000 Du        
   3523 ****       256.5000 390.2500 -106.7500 Du        
   3524 ****       256.5000 390.2500 -106.5000 Du        
   3525 ****       256.5000 390.2500 -106.2500 Du        
   3526 ****       256.7500 389.7500 -107.2500 Du        
   3527 ****       256.7500 389.7500 -107.0000 Du        
   3528 ****       256.7500 389.7500 -106.7500 Du        
   3529 ****       256.7500 389.7500 -106.5000 Du        
   3530 ****       256.7500 389.7500 -106.2500 Du        
   3531 ****       256.7500 390.0000 -107.5000 Du        
   3532 ****       256.7500 390.0000 -107.2500 Du        
   3533 ****       256.7500 390.0000 -107.0000 Du        
   3534 ****       256.7500 390.0000 -106.7500 Du        
   3535 ****       256.7500 390.0000 -106.5000 Du        
   3536 ****       256.7500 390.0000 -106.2500 Du        
   3537 ****       256.7500 390.2500 -107.5000 Du        
   3538 ****       256.7500 390.2500 -107.2500 Du        
   3539 ****       256.7500 390.2500 -107.0000 Du        
   3540 ****       256.7500 390.2500 -106.7500 Du        
   3541 ****       256.7500 390.2500 -106.5000 Du        
   3542 ****       257.0000 385.0000 -102.5000 Du        
   3543 ****       257.0000 389.7500 -107.2500 Du        
   3544 ****       257.0000 389.7500 -107.0000 Du        
   3545 ****       257.0000 389.7500 -106.7500 Du        
   3546 ****       257.0000 389.7500 -106.5000 Du        
   3547 ****       257.0000 390.0000 -107.5000 Du        
   3548 ****       257.0000 390.0000 -107.2500 Du        
   3549 ****       257.0000 390.0000 -107.0000 Du        
   3550 ****       257.0000 390.0000 -106.7500 Du        
   3551 ****       257.0000 390.0000 -106.5000 Du        
   3552 ****       257.0000 390.2500 -107.5000 Du        
   3553 ****       257.0000 390.2500 -107.2500 Du        
   3554 ****       257.0000 390.2500 -107.0000 Du        
   3555 ****       257.2500 385.0000 -102.7500 Du        
   3556 ****       257.2500 385.0000 -102.5000 Du        
   3557 ****       257.2500 385.2500 -102.7500 Du        
   3558 ****       257.2500 385.2500 -102.5000 Du        
