#       Name:                CT1002167954
#       Creating user name   hitesit
#       Creation time:       Sun Apr 16 02:36:46 2023


#       File generated by GOLD software.
#

@<TRIPOS>MOLECULE
CT1002167954|ligand_prepared|mol2|1|dock5
    29    30     1
SMALL
NO_CHARGES


@<TRIPOS>ATOM
      1 C1         253.8099 390.0803 -102.1846 C.3            1 RES1               0.0000
      2 C2         252.8033 389.8784 -101.0335 C.ar           1 RES1               0.0000
      3 C3         252.9831 390.1925 -103.4621 C.2            1 RES1               0.0000
      4 C4         254.6015 391.3379 -101.8433 C.2            1 RES1               0.0000
      5 C5         254.8127 388.9146 -102.3493 C.3            1 RES1               0.0000
      6 C6         251.4522 390.1571 -101.2167 C.ar           1 RES1               0.0000
      7 C7         253.2097 389.4124 -99.7860 C.ar           1 RES1               0.0000
      8 N8         252.8578 391.4273 -104.0272 N.am           1 RES1               0.0000
      9 O9         252.4168 389.2193 -103.9443 O.2            1 RES1               0.0000
     10 N10        254.4570 392.4288 -102.6600 N.am           1 RES1               0.0000
     11 O11        255.3362 391.3995 -100.8652 O.2            1 RES1               0.0000
     12 C12        255.6565 389.0054 -103.6110 C.3            1 RES1               0.0000
     13 C13        250.5399 389.9738 -100.1909 C.ar           1 RES1               0.0000
     14 C14        252.2957 389.2300 -98.7614 C.ar           1 RES1               0.0000
     15 C15        253.5976 392.5406 -103.7188 C.2            1 RES1               0.0000
     16 C16        250.9608 389.5098 -98.9628 C.ar           1 RES1               0.0000
     17 O17        253.4848 393.5737 -104.3723 O.2            1 RES1               0.0000
     18 H18        255.4799 388.8971 -101.4788 H              1 RES1               0.0000
     19 H19        254.2561 387.9694 -102.3642 H              1 RES1               0.0000
     20 H20        251.1028 390.5254 -102.1755 H              1 RES1               0.0000
     21 H21        254.2551 389.1868 -99.6045 H              1 RES1               0.0000
     22 H22        252.1484 391.5329 -104.7455 H              1 RES1               0.0000
     23 H23        255.0448 393.2319 -102.4601 H              1 RES1               0.0000
     24 H24        256.3427 388.1637 -103.6776 H              1 RES1               0.0000
     25 H25        255.0262 388.9998 -104.4979 H              1 RES1               0.0000
     26 H26        256.2428 389.9220 -103.6177 H              1 RES1               0.0000
     27 H27        249.4906 390.1968 -100.3540 H              1 RES1               0.0000
     28 H28        252.6316 388.8652 -97.7964 H              1 RES1               0.0000
     29 H29        250.2459 389.3659 -98.1595 H              1 RES1               0.0000
@<TRIPOS>BOND
    1    1    2 1     
    2    1    3 1     
    3    1    4 1     
    4    1    5 1     
    5    2    6 ar    
    6    2    7 ar    
    7    3    8 1     
    8    3    9 2     
    9    4   10 1     
   10    4   11 2     
   11    5   12 1     
   12    5   18 1     
   13    5   19 1     
   14    6   13 ar    
   15    6   20 1     
   16    7   14 ar    
   17    7   21 1     
   18    8   15 1     
   19    8   22 1     
   20   10   15 1     
   21   10   23 1     
   22   12   24 1     
   23   12   25 1     
   24   12   26 1     
   25   13   16 ar    
   26   13   27 1     
   27   14   16 ar    
   28   14   28 1     
   29   15   17 2     
   30   16   29 1     
@<TRIPOS>SUBSTRUCTURE
      1 RES1           1
@<TRIPOS>SET
DONOR_HYDROGENS      STATIC     ATOMS    <user>   **** ""
2 22 23
ATOM$RED        STATIC     ATOMS    COLORGROUP SYSTEM
2 22 23
@<TRIPOS>COMMENT
> <Gold.Version>
2022.3.0

> <Gold.Id.Protein>
unknown|7ts3_clean|pdb

> <Gold.Protein.RotatedTorsions>
[ 1244 1203 1204 1205 ] final  147.59 input  115.91 | X-H torsion
[ 1316 1285 1286 1287 ] final -139.54 input  116.80 | X-H torsion
[ 1474 1426 1427 1428 ] final  -24.64 input   84.58 | X-H torsion
[ 1484 1434 1433 1432 ] final  127.96 input   60.01 | X-H torsion
[ 1526 1505 1506 1507 ] final  152.75 input   90.12 | X-H torsion
[ 3997 3964 3965 3966 ] final -163.87 input  106.83 | X-H torsion
[ 4216 4196 4195 4192 ] final  123.47 input   60.00 | X-H torsion
[ 6608 6572 6571 6569 ] final -155.48 input   60.00 | X-H torsion
[ 25713 25680 25681 25682 ] final  177.83 input   66.88 | X-H torsion
[ 4080 4041 4042 4043 ] final  -92.63 input  118.05 | X-H torsion
[ 4256 4235 4236 4237 ] final  -18.29 input  121.49 | X-H torsion
[ 23722 23672 23673 23674 ] final   80.47 input   67.42 | X-H torsion
[ 23760 23747 23748 23749 ] final  157.08 input  -89.77 | X-H torsion
[ 4260 4240 4239 4236 ] final   19.95 input   60.02 | X-H torsion
[ 1178 1150 1148 1145 ] final   76.05 input   60.00 | X-H torsion
[ 25482 25446 25445 25443 ] final  -94.09 input   60.01 | X-H torsion
[ 4422 4372 4371 4370 ] final  130.57 input   59.99 | X-H torsion
[ 23788 23775 23776 23777 ] final   96.10 input  -27.92 | X-H torsion
[ 27271 1147 1146 1145 ] final   38.67 input   -0.00 | X-H torsion
[ 27274 1206 1205 1204 ] final  -59.76 input    0.00 | X-H torsion
[ 27278 1429 1428 1427 ] final -106.21 input    0.00 | X-H torsion
[ 27284 3967 3966 3965 ] final   55.90 input    0.00 | X-H torsion
[ 27291 23675 23674 23673 ] final -117.48 input    0.00 | X-H torsion
[ 27294 25683 25682 25681 ] final -130.82 input    0.00 | X-H torsion
[ 27296 1350 1349 1348 ] final   30.08 input    0.00 | X-H torsion
[ 27298 3703 3702 3701 ] final  -16.78 input   -0.00 | X-H torsion
[ 27304 6798 6797 6796 ] final -123.75 input    0.00 | X-H torsion
[ 27307 23613 23612 23611 ] final   23.95 input   -0.00 | X-H torsion
[ 27311 23778 23777 23776 ] final   66.67 input   -0.00 | X-H torsion
[ 27313 4194 4193 4192 ] final   78.83 input    0.00 | X-H torsion

> <Gold.Protein.ActiveResidues>
 THR320  LEU321  HIS322  LEU323  LYS324  SER325  THR326  GLU365  PHE366  GLN369 
 TYR370  SER372  SER373  LYS375  TYR408  HIS412  ARG415  ASN416  TRP426  GLU670 
 CYS673  ARG674  GLY675  GLY676  TYR703  LEU705  THR706  PRO707 

> <Gold.Protein.RotatedAtoms>
  255.8438  381.4187 -102.3310 H   0  0  0  0  0  0  0  0  0  0  0  0  # atno 1178 bound_to 1150
  253.4751  380.9319 -102.9467 H   0  0  0  0  0  0  0  0  0  0  0  0  # atno 1244 bound_to 1203
  250.3833  381.1388 -101.7667 H   0  0  0  0  0  0  0  0  0  0  0  0  # atno 1316 bound_to 1285
  249.8413  382.4804  -97.2103 H   0  0  0  0  0  0  0  0  0  0  0  0  # atno 1474 bound_to 1426
  254.8131  383.2177  -99.5334 H   0  0  0  0  0  0  0  0  0  0  0  0  # atno 1484 bound_to 1434
  255.9500  384.3918  -99.8048 H   0  0  0  0  0  0  0  0  0  0  0  0  # atno 1485 bound_to 1434
  255.3094  384.1937  -98.2895 H   0  0  0  0  0  0  0  0  0  0  0  0  # atno 1486 bound_to 1434
  248.4605  383.3039  -97.9159 H   0  0  0  0  0  0  0  0  0  0  0  0  # atno 1526 bound_to 1505
  253.1088  394.7042  -96.2384 H   0  0  0  0  0  0  0  0  0  0  0  0  # atno 3997 bound_to 3964
  252.8942  395.8188  -99.6751 H   0  0  0  0  0  0  0  0  0  0  0  0  # atno 4080 bound_to 4041
  258.3687  392.6757  -98.4764 H   0  0  0  0  0  0  0  0  0  0  0  0  # atno 4216 bound_to 4196
  257.4206  396.0492 -101.3722 H   0  0  0  0  0  0  0  0  0  0  0  0  # atno 4256 bound_to 4235
  255.6726  397.6907 -103.7384 H   0  0  0  0  0  0  0  0  0  0  0  0  # atno 4260 bound_to 4240
  259.8060  393.1710 -105.6777 H   0  0  0  0  0  0  0  0  0  0  0  0  # atno 4422 bound_to 4372
  261.3518  392.6121 -105.8917 H   0  0  0  0  0  0  0  0  0  0  0  0  # atno 4423 bound_to 4372
  260.8051  392.9769 -104.3702 H   0  0  0  0  0  0  0  0  0  0  0  0  # atno 4424 bound_to 4372
  250.7514  394.1373 -102.2837 H   0  0  0  0  0  0  0  0  0  0  0  0  # atno 6608 bound_to 6572
  255.6965  384.9023 -108.8631 H   0  0  0  0  0  0  0  0  0  0  0  0  # atno 23722 bound_to 23672
  256.2147  383.9456 -106.1970 H   0  0  0  0  0  0  0  0  0  0  0  0  # atno 23760 bound_to 23747
  253.4115  382.2648 -105.6815 H   0  0  0  0  0  0  0  0  0  0  0  0  # atno 23788 bound_to 23775
  248.6869  381.2825 -105.2568 H   0  0  0  0  0  0  0  0  0  0  0  0  # atno 25482 bound_to 25446
  243.9176  388.6114  -99.5490 H   0  0  0  0  0  0  0  0  0  0  0  0  # atno 25713 bound_to 25680
  254.3375  380.6096  -99.2901 LP  0  0  0  0  0  0  0  0  0  0  0  0  # atno 27271 bound_to 1147
  252.6523  380.9374  -99.5195 LP  0  0  0  0  0  0  0  0  0  0  0  0  # atno 27272 bound_to 1147
  253.0756  380.2829 -101.3711 LP  0  0  0  0  0  0  0  0  0  0  0  0  # atno 27273 bound_to 1203
  251.0422  383.2735  -99.5381 LP  0  0  0  0  0  0  0  0  0  0  0  0  # atno 27274 bound_to 1206
  249.5287  383.0798 -100.3578 LP  0  0  0  0  0  0  0  0  0  0  0  0  # atno 27275 bound_to 1206
  251.4028  380.3944 -100.5589 LP  0  0  0  0  0  0  0  0  0  0  0  0  # atno 27276 bound_to 1285
  251.4921  382.8954  -97.6182 LP  0  0  0  0  0  0  0  0  0  0  0  0  # atno 27277 bound_to 1426
  247.9408  386.4533  -96.5088 LP  0  0  0  0  0  0  0  0  0  0  0  0  # atno 27278 bound_to 1429
  248.5625  386.5505  -98.1225 LP  0  0  0  0  0  0  0  0  0  0  0  0  # atno 27279 bound_to 1429
  248.4226  384.2126  -96.4234 LP  0  0  0  0  0  0  0  0  0  0  0  0  # atno 27280 bound_to 1505
  252.8639  396.2244  -97.0544 LP  0  0  0  0  0  0  0  0  0  0  0  0  # atno 27283 bound_to 3964
  254.0399  394.5233 -100.9909 LP  0  0  0  0  0  0  0  0  0  0  0  0  # atno 27284 bound_to 3967
  254.9894  395.9270 -100.6332 LP  0  0  0  0  0  0  0  0  0  0  0  0  # atno 27285 bound_to 3967
  258.9490  393.4733  -99.7705 LP  0  0  0  0  0  0  0  0  0  0  0  0  # atno 27286 bound_to 4196
  257.7070  392.4270  -99.9420 LP  0  0  0  0  0  0  0  0  0  0  0  0  # atno 27287 bound_to 4196
  252.2538  394.7466 -102.1423 LP  0  0  0  0  0  0  0  0  0  0  0  0  # atno 27288 bound_to 6572
  251.8159  393.9535 -103.5009 LP  0  0  0  0  0  0  0  0  0  0  0  0  # atno 27289 bound_to 6572
  255.4737  384.4496 -104.0241 LP  0  0  0  0  0  0  0  0  0  0  0  0  # atno 27291 bound_to 23675
  253.9651  385.0766 -104.5995 LP  0  0  0  0  0  0  0  0  0  0  0  0  # atno 27292 bound_to 23675
  245.4375  389.1733 -100.1876 LP  0  0  0  0  0  0  0  0  0  0  0  0  # atno 27293 bound_to 25680
  246.9135  392.0935  -99.7884 LP  0  0  0  0  0  0  0  0  0  0  0  0  # atno 27294 bound_to 25683
  246.6527  390.4947 -100.4015 LP  0  0  0  0  0  0  0  0  0  0  0  0  # atno 27295 bound_to 25683
  250.8959  382.0005  -94.4542 LP  0  0  0  0  0  0  0  0  0  0  0  0  # atno 27296 bound_to 1350
  249.7700  383.2237  -94.9399 LP  0  0  0  0  0  0  0  0  0  0  0  0  # atno 27297 bound_to 1350
  251.3196  394.0154  -95.1472 LP  0  0  0  0  0  0  0  0  0  0  0  0  # atno 27298 bound_to 3703
  250.3976  394.6414  -96.4731 LP  0  0  0  0  0  0  0  0  0  0  0  0  # atno 27299 bound_to 3703
  252.6077  397.0341  -98.4550 LP  0  0  0  0  0  0  0  0  0  0  0  0  # atno 27302 bound_to 4041
  255.9163  395.1684 -101.2436 LP  0  0  0  0  0  0  0  0  0  0  0  0  # atno 27303 bound_to 4235
  244.3897  391.2584 -106.8032 LP  0  0  0  0  0  0  0  0  0  0  0  0  # atno 27304 bound_to 6798
  245.6768  391.2516 -105.6442 LP  0  0  0  0  0  0  0  0  0  0  0  0  # atno 27305 bound_to 6798
  258.6113  387.2730 -107.7264 LP  0  0  0  0  0  0  0  0  0  0  0  0  # atno 27307 bound_to 23613
  257.7170  386.4617 -106.4846 LP  0  0  0  0  0  0  0  0  0  0  0  0  # atno 27308 bound_to 23613
  257.1087  385.6470 -108.1461 LP  0  0  0  0  0  0  0  0  0  0  0  0  # atno 27309 bound_to 23672
  254.8969  383.3736 -107.1894 LP  0  0  0  0  0  0  0  0  0  0  0  0  # atno 27310 bound_to 23747
  251.9044  383.4218 -108.4678 LP  0  0  0  0  0  0  0  0  0  0  0  0  # atno 27311 bound_to 23778
  250.8236  384.0955 -107.2940 LP  0  0  0  0  0  0  0  0  0  0  0  0  # atno 27312 bound_to 23778
  259.2345  394.3188 -101.8905 LP  0  0  0  0  0  0  0  0  0  0  0  0  # atno 27313 bound_to 4194
  259.3203  396.0173 -102.2192 LP  0  0  0  0  0  0  0  0  0  0  0  0  # atno 27314 bound_to 4194
  254.3292  397.4368 -102.8552 LP  0  0  0  0  0  0  0  0  0  0  0  0  # atno 27315 bound_to 4240
  254.2535  397.4151 -104.4863 LP  0  0  0  0  0  0  0  0  0  0  0  0  # atno 27316 bound_to 4240

> <Gold.Score>
     Fitness  S(hb_ext) S(vdw_ext)  S(hb_int)    S(int)      intcor
     32.83       7.32      19.65       0.00      -1.52      -0.76

> <Gold.Goldscore.Fitness>
32.8288

> <Gold.Goldscore.Internal.Vdw>
-1.7705

> <Gold.Goldscore.Internal.Torsion>
-0.5046

> <Gold.Goldscore.External.Vdw>
19.6513

> <Gold.Goldscore.Internal.HBond>
0.0000

> <Gold.Goldscore.External.HBond>
7.3248

> <Gold.Goldscore.Internal.Correction>
-0.7585

> <Gold.Goldscore.Hbonds>
donor molecule, donor type, donor heavy atom, donor atom, acceptor molecule, acceptor atom, score
      P1  H 23679 23730       L1     9  1.00
      L1  H     8    22       P1  6804  0.02
      L1  H    10    23       P1  4235  0.20

> <Gold.Goldscore.Internal.Vdw.Weighted>
-1.7705

> <Gold.Goldscore.Internal.Torsion.Weighted>
-0.5046

> <Gold.Goldscore.External.Vdw.Weighted>
27.0205

> <Gold.Goldscore.Internal.HBond.Weighted>
0.0000

> <Gold.Goldscore.External.HBond.Weighted>
7.3248

> <Gold.Goldscore.Internal.Correction.Weighted>
-0.7585

> <Gold.Rescore>
     Score     S(PLP)   S(hbond)     S(cho)   S(metal)  DE(clash)   DE(tors)     intcor
     28.06     -27.67       0.86       0.00       0.00       2.05       0.08       ----

> <Gold.PLP.Fitness>
28.0615

> <Gold.PLP.PLP>
-27.6749

> <Gold.PLP.part.hbond>
-1.6569

> <Gold.PLP.part.metal>
0.0000

> <Gold.PLP.part.buried>
-1.3881

> <Gold.PLP.part.nonpolar>
-23.9779

> <Gold.PLP.part.repulsive>
0.2765

> <Gold.PLP.ligand.clash>
2.0548

> <Gold.PLP.ligand.torsion>
0.0753

> <Gold.PLP.Chemscore.Hbond>
0.8640

> <Gold.PLP.Chemscore.CHOScore>
0.0000

> <Gold.PLP.Chemscore.Metal>
0.0000

> <Gold.Chemscore.Hbonds>
donor molecule, donor type, donor heavy atom, donor atom, acceptor molecule, acceptor atom, score
      P1  H 23679 23730       L1     9  0.65

> <Gold.PLP.Chemscore.Internal.Correction>
   9.000000E+99

