#       Name:                CT1002167954
#       Creating user name   hitesit
#       Creation time:       Sun Apr 16 02:36:47 2023


#       File generated by GOLD software.
#

@<TRIPOS>MOLECULE
CT1002167954|ligand_prepared|mol2|1|dock6
    29    30     1
SMALL
NO_CHARGES


@<TRIPOS>ATOM
      1 C1         253.8580 391.0410 -101.5161 C.3            1 RES1               0.0000
      2 C2         253.6137 390.8264 -100.0084 C.ar           1 RES1               0.0000
      3 C3         254.3023 392.4920 -101.6758 C.2            1 RES1               0.0000
      4 C4         254.9118 390.0188 -101.9273 C.2            1 RES1               0.0000
      5 C5         252.6035 390.8123 -102.3910 C.3            1 RES1               0.0000
      6 C6         254.4583 391.4032 -99.0646 C.ar           1 RES1               0.0000
      7 C7         252.5485 390.0577 -99.5469 C.ar           1 RES1               0.0000
      8 N8         255.6195 392.7236 -101.9427 N.am           1 RES1               0.0000
      9 O9         253.5168 393.4205 -101.5307 O.2            1 RES1               0.0000
     10 N10        256.1337 390.4852 -102.3360 N.am           1 RES1               0.0000
     11 O11        254.7006 388.8130 -101.8852 O.2            1 RES1               0.0000
     12 C12        252.7521 391.3138 -103.8188 C.3            1 RES1               0.0000
     13 C13        254.2440 391.2208 -97.7084 C.ar           1 RES1               0.0000
     14 C14        252.3361 389.8763 -98.1902 C.ar           1 RES1               0.0000
     15 C15        256.5456 391.7900 -102.3331 C.2            1 RES1               0.0000
     16 C16        253.1826 390.4577 -97.2704 C.ar           1 RES1               0.0000
     17 O17        257.6792 392.1261 -102.6636 O.2            1 RES1               0.0000
     18 H18        252.3809 389.7384 -102.4153 H              1 RES1               0.0000
     19 H19        251.7505 391.3211 -101.9251 H              1 RES1               0.0000
     20 H20        255.3001 392.0050 -99.3905 H              1 RES1               0.0000
     21 H21        251.8703 389.5899 -100.2524 H              1 RES1               0.0000
     22 H22        255.9462 393.6794 -101.8426 H              1 RES1               0.0000
     23 H23        256.7978 389.7958 -102.6739 H              1 RES1               0.0000
     24 H24        251.8442 391.1287 -104.3890 H              1 RES1               0.0000
     25 H25        252.9492 392.3837 -103.8334 H              1 RES1               0.0000
     26 H26        253.5759 390.8104 -104.3206 H              1 RES1               0.0000
     27 H27        254.9139 391.6793 -96.9886 H              1 RES1               0.0000
     28 H28        251.4999 389.2745 -97.8500 H              1 RES1               0.0000
     29 H29        253.0147 390.3152 -96.2079 H              1 RES1               0.0000
@<TRIPOS>BOND
    1    1    2 1     
    2    1    3 1     
    3    1    4 1     
    4    1    5 1     
    5    2    6 ar    
    6    2    7 ar    
    7    3    8 1     
    8    3    9 2     
    9    4   10 1     
   10    4   11 2     
   11    5   12 1     
   12    5   18 1     
   13    5   19 1     
   14    6   13 ar    
   15    6   20 1     
   16    7   14 ar    
   17    7   21 1     
   18    8   15 1     
   19    8   22 1     
   20   10   15 1     
   21   10   23 1     
   22   12   24 1     
   23   12   25 1     
   24   12   26 1     
   25   13   16 ar    
   26   13   27 1     
   27   14   16 ar    
   28   14   28 1     
   29   15   17 2     
   30   16   29 1     
@<TRIPOS>SUBSTRUCTURE
      1 RES1           1
@<TRIPOS>SET
DONOR_HYDROGENS      STATIC     ATOMS    <user>   **** ""
2 22 23
ATOM$RED        STATIC     ATOMS    COLORGROUP SYSTEM
2 22 23
@<TRIPOS>COMMENT
> <Gold.Version>
2022.3.0

> <Gold.Id.Protein>
unknown|7ts3_clean|pdb

> <Gold.Protein.RotatedTorsions>
[ 1244 1203 1204 1205 ] final  147.07 input  115.91 | X-H torsion
[ 1316 1285 1286 1287 ] final   84.13 input  116.80 | X-H torsion
[ 1474 1426 1427 1428 ] final -172.16 input   84.58 | X-H torsion
[ 1484 1434 1433 1432 ] final   81.52 input   60.01 | X-H torsion
[ 1526 1505 1506 1507 ] final  121.81 input   90.12 | X-H torsion
[ 3997 3964 3965 3966 ] final  130.67 input  106.83 | X-H torsion
[ 4216 4196 4195 4192 ] final -174.83 input   60.00 | X-H torsion
[ 6608 6572 6571 6569 ] final   40.93 input   60.00 | X-H torsion
[ 25713 25680 25681 25682 ] final   72.16 input   66.88 | X-H torsion
[ 4080 4041 4042 4043 ] final -166.91 input  118.05 | X-H torsion
[ 4256 4235 4236 4237 ] final   12.99 input  121.49 | X-H torsion
[ 23722 23672 23673 23674 ] final -115.06 input   67.42 | X-H torsion
[ 23760 23747 23748 23749 ] final  127.47 input  -89.77 | X-H torsion
[ 4260 4240 4239 4236 ] final -106.28 input   60.02 | X-H torsion
[ 1178 1150 1148 1145 ] final  151.18 input   60.00 | X-H torsion
[ 25482 25446 25445 25443 ] final   91.73 input   60.01 | X-H torsion
[ 4422 4372 4371 4370 ] final -174.66 input   59.99 | X-H torsion
[ 23788 23775 23776 23777 ] final  164.92 input  -27.92 | X-H torsion
[ 27271 1147 1146 1145 ] final   65.42 input   -0.00 | X-H torsion
[ 27274 1206 1205 1204 ] final  168.67 input    0.00 | X-H torsion
[ 27278 1429 1428 1427 ] final -111.08 input    0.00 | X-H torsion
[ 27284 3967 3966 3965 ] final   22.50 input    0.00 | X-H torsion
[ 27291 23675 23674 23673 ] final  -53.74 input    0.00 | X-H torsion
[ 27294 25683 25682 25681 ] final  -36.61 input    0.00 | X-H torsion
[ 27296 1350 1349 1348 ] final   66.81 input    0.00 | X-H torsion
[ 27298 3703 3702 3701 ] final  -88.67 input   -0.00 | X-H torsion
[ 27304 6798 6797 6796 ] final    3.14 input    0.00 | X-H torsion
[ 27307 23613 23612 23611 ] final   83.23 input   -0.00 | X-H torsion
[ 27311 23778 23777 23776 ] final    6.15 input   -0.00 | X-H torsion
[ 27313 4194 4193 4192 ] final -176.21 input    0.00 | X-H torsion

> <Gold.Protein.ActiveResidues>
 THR320  LEU321  HIS322  LEU323  LYS324  SER325  THR326  GLU365  PHE366  GLN369 
 TYR370  SER372  SER373  LYS375  TYR408  HIS412  ARG415  ASN416  TRP426  GLU670 
 CYS673  ARG674  GLY675  GLY676  TYR703  LEU705  THR706  PRO707 

> <Gold.Protein.RotatedAtoms>
  256.9582  381.1748 -102.2764 H   0  0  0  0  0  0  0  0  0  0  0  0  # atno 1178 bound_to 1150
  253.4687  380.9282 -102.9498 H   0  0  0  0  0  0  0  0  0  0  0  0  # atno 1244 bound_to 1203
  251.2277  379.9564 -101.0062 H   0  0  0  0  0  0  0  0  0  0  0  0  # atno 1316 bound_to 1285
  251.5127  382.8270  -97.1327 H   0  0  0  0  0  0  0  0  0  0  0  0  # atno 1474 bound_to 1426
  254.7141  383.3574  -98.7986 H   0  0  0  0  0  0  0  0  0  0  0  0  # atno 1484 bound_to 1434
  255.5578  383.8413 -100.1397 H   0  0  0  0  0  0  0  0  0  0  0  0  # atno 1485 bound_to 1434
  255.8002  384.6043  -98.6890 H   0  0  0  0  0  0  0  0  0  0  0  0  # atno 1486 bound_to 1434
  248.3760  382.9864  -97.5775 H   0  0  0  0  0  0  0  0  0  0  0  0  # atno 1526 bound_to 1505
  252.2536  395.0136  -96.4970 H   0  0  0  0  0  0  0  0  0  0  0  0  # atno 3997 bound_to 3964
  251.9688  396.2843  -99.4379 H   0  0  0  0  0  0  0  0  0  0  0  0  # atno 4080 bound_to 4041
  257.7269  392.2443  -99.0455 H   0  0  0  0  0  0  0  0  0  0  0  0  # atno 4216 bound_to 4196
  257.0782  396.3811 -101.3557 H   0  0  0  0  0  0  0  0  0  0  0  0  # atno 4256 bound_to 4235
  254.2463  397.4184 -102.9122 H   0  0  0  0  0  0  0  0  0  0  0  0  # atno 4260 bound_to 4240
  260.4225  392.8931 -106.2411 H   0  0  0  0  0  0  0  0  0  0  0  0  # atno 4422 bound_to 4372
  261.5279  392.6509 -105.0298 H   0  0  0  0  0  0  0  0  0  0  0  0  # atno 4423 bound_to 4372
  260.0123  393.2162 -104.6686 H   0  0  0  0  0  0  0  0  0  0  0  0  # atno 4424 bound_to 4372
  252.4939  394.5462 -102.7661 H   0  0  0  0  0  0  0  0  0  0  0  0  # atno 6608 bound_to 6572
  257.0315  385.8581 -108.2262 H   0  0  0  0  0  0  0  0  0  0  0  0  # atno 23722 bound_to 23672
  255.8459  384.1299 -106.0160 H   0  0  0  0  0  0  0  0  0  0  0  0  # atno 23760 bound_to 23747
  253.8396  381.3923 -105.9220 H   0  0  0  0  0  0  0  0  0  0  0  0  # atno 23788 bound_to 23775
  249.7746  380.8110 -103.8104 H   0  0  0  0  0  0  0  0  0  0  0  0  # atno 25482 bound_to 25446
  245.1746  389.0729  -99.1735 H   0  0  0  0  0  0  0  0  0  0  0  0  # atno 25713 bound_to 25680
  254.3311  380.9980  -99.3884 LP  0  0  0  0  0  0  0  0  0  0  0  0  # atno 27271 bound_to 1147
  252.6586  380.5490  -99.4213 LP  0  0  0  0  0  0  0  0  0  0  0  0  # atno 27272 bound_to 1147
  253.0819  380.2865 -101.3681 LP  0  0  0  0  0  0  0  0  0  0  0  0  # atno 27273 bound_to 1203
  249.5979  382.6793  -99.7751 LP  0  0  0  0  0  0  0  0  0  0  0  0  # atno 27274 bound_to 1206
  250.9730  383.6740 -100.1208 LP  0  0  0  0  0  0  0  0  0  0  0  0  # atno 27275 bound_to 1206
  250.5772  381.5506 -101.3025 LP  0  0  0  0  0  0  0  0  0  0  0  0  # atno 27276 bound_to 1285
  249.8761  382.5603  -97.6932 LP  0  0  0  0  0  0  0  0  0  0  0  0  # atno 27277 bound_to 1426
  247.8774  386.4304  -96.5380 LP  0  0  0  0  0  0  0  0  0  0  0  0  # atno 27278 bound_to 1429
  248.6260  386.5734  -98.0933 LP  0  0  0  0  0  0  0  0  0  0  0  0  # atno 27279 bound_to 1429
  248.5051  384.5226  -96.7539 LP  0  0  0  0  0  0  0  0  0  0  0  0  # atno 27280 bound_to 1505
  253.7131  395.9172  -96.7976 LP  0  0  0  0  0  0  0  0  0  0  0  0  # atno 27283 bound_to 3964
  254.3894  394.3807 -100.6665 LP  0  0  0  0  0  0  0  0  0  0  0  0  # atno 27284 bound_to 3967
  254.6399  396.0696 -100.9577 LP  0  0  0  0  0  0  0  0  0  0  0  0  # atno 27285 bound_to 3967
  258.9673  393.2740  -98.8245 LP  0  0  0  0  0  0  0  0  0  0  0  0  # atno 27286 bound_to 4196
  258.3350  393.0607 -100.3149 LP  0  0  0  0  0  0  0  0  0  0  0  0  # atno 27287 bound_to 4196
  251.1579  393.7991 -103.3187 LP  0  0  0  0  0  0  0  0  0  0  0  0  # atno 27288 bound_to 6572
  251.1577  394.4894 -101.8388 LP  0  0  0  0  0  0  0  0  0  0  0  0  # atno 27289 bound_to 6572
  255.3605  385.3371 -104.2137 LP  0  0  0  0  0  0  0  0  0  0  0  0  # atno 27291 bound_to 23675
  254.0783  384.1892 -104.4099 LP  0  0  0  0  0  0  0  0  0  0  0  0  # atno 27292 bound_to 23675
  244.1856  388.7136 -100.5615 LP  0  0  0  0  0  0  0  0  0  0  0  0  # atno 27293 bound_to 25680
  246.5702  390.9640  -99.3232 LP  0  0  0  0  0  0  0  0  0  0  0  0  # atno 27294 bound_to 25683
  246.9960  391.6242 -100.8668 LP  0  0  0  0  0  0  0  0  0  0  0  0  # atno 27295 bound_to 25683
  251.1652  382.4727  -94.5023 LP  0  0  0  0  0  0  0  0  0  0  0  0  # atno 27296 bound_to 1350
  249.5007  382.7515  -94.8918 LP  0  0  0  0  0  0  0  0  0  0  0  0  # atno 27297 bound_to 1350
  251.3502  394.9692  -95.4977 LP  0  0  0  0  0  0  0  0  0  0  0  0  # atno 27298 bound_to 3703
  250.3670  393.6876  -96.1226 LP  0  0  0  0  0  0  0  0  0  0  0  0  # atno 27299 bound_to 3703
  253.5181  396.5763  -98.6882 LP  0  0  0  0  0  0  0  0  0  0  0  0  # atno 27302 bound_to 4041
  256.2502  394.8447 -101.2597 LP  0  0  0  0  0  0  0  0  0  0  0  0  # atno 27303 bound_to 4235
  245.8820  391.2089 -106.3897 LP  0  0  0  0  0  0  0  0  0  0  0  0  # atno 27304 bound_to 6798
  244.1845  391.3011 -106.0577 LP  0  0  0  0  0  0  0  0  0  0  0  0  # atno 27305 bound_to 6798
  257.8627  387.5959 -107.4637 LP  0  0  0  0  0  0  0  0  0  0  0  0  # atno 27307 bound_to 23613
  258.4656  386.1387 -106.7474 LP  0  0  0  0  0  0  0  0  0  0  0  0  # atno 27308 bound_to 23613
  255.8149  384.7206 -108.7634 LP  0  0  0  0  0  0  0  0  0  0  0  0  # atno 27309 bound_to 23672
  255.2589  383.1927 -107.3671 LP  0  0  0  0  0  0  0  0  0  0  0  0  # atno 27310 bound_to 23747
  252.1839  383.5905 -107.6584 LP  0  0  0  0  0  0  0  0  0  0  0  0  # atno 27311 bound_to 23778
  250.5441  383.9268 -108.1035 LP  0  0  0  0  0  0  0  0  0  0  0  0  # atno 27312 bound_to 23778
  258.8562  395.2723 -102.8044 LP  0  0  0  0  0  0  0  0  0  0  0  0  # atno 27313 bound_to 4194
  259.6986  395.0638 -101.3054 LP  0  0  0  0  0  0  0  0  0  0  0  0  # atno 27314 bound_to 4194
  254.3410  397.4318 -104.5370 LP  0  0  0  0  0  0  0  0  0  0  0  0  # atno 27315 bound_to 4240
  255.6776  397.6942 -103.6363 LP  0  0  0  0  0  0  0  0  0  0  0  0  # atno 27316 bound_to 4240

> <Gold.Score>
     Fitness  S(hb_ext) S(vdw_ext)  S(hb_int)    S(int)      intcor
     33.37       3.98      21.60       0.00      -0.31      -0.76

> <Gold.Goldscore.Fitness>
33.3669

> <Gold.Goldscore.Internal.Vdw>
-0.4432

> <Gold.Goldscore.Internal.Torsion>
-0.6256

> <Gold.Goldscore.External.Vdw>
21.5985

> <Gold.Goldscore.Internal.HBond>
0.0000

> <Gold.Goldscore.External.HBond>
3.9793

> <Gold.Goldscore.Internal.Correction>
-0.7585

> <Gold.Goldscore.Hbonds>
donor molecule, donor type, donor heavy atom, donor atom, acceptor molecule, acceptor atom, score
      P1  H  6572  6608       L1     9  0.01
      L1  H     8    22       P1  4235  0.66

> <Gold.Goldscore.Internal.Vdw.Weighted>
-0.4432

> <Gold.Goldscore.Internal.Torsion.Weighted>
-0.6256

> <Gold.Goldscore.External.Vdw.Weighted>
29.6980

> <Gold.Goldscore.Internal.HBond.Weighted>
0.0000

> <Gold.Goldscore.External.HBond.Weighted>
3.9793

> <Gold.Goldscore.Internal.Correction.Weighted>
-0.7585

> <Gold.Rescore>
     Score     S(PLP)   S(hbond)     S(cho)   S(metal)  DE(clash)   DE(tors)     intcor
     29.05     -29.01       0.27       0.00       0.00       0.00       0.39       ----

> <Gold.PLP.Fitness>
29.0477

> <Gold.PLP.PLP>
-29.0135

> <Gold.PLP.part.hbond>
-0.2491

> <Gold.PLP.part.metal>
0.0000

> <Gold.PLP.part.buried>
-5.6779

> <Gold.PLP.part.nonpolar>
-24.6988

> <Gold.PLP.part.repulsive>
2.2158

> <Gold.PLP.ligand.clash>
0.0000

> <Gold.PLP.ligand.torsion>
0.3909

> <Gold.PLP.Chemscore.Hbond>
0.2720

> <Gold.PLP.Chemscore.CHOScore>
0.0000

> <Gold.PLP.Chemscore.Metal>
0.0000

> <Gold.Chemscore.Hbonds>
donor molecule, donor type, donor heavy atom, donor atom, acceptor molecule, acceptor atom, score
      L1  H     8    22       P1  4235  0.35
      P1  H  6572  6608       L1     9  0.45

> <Gold.PLP.Chemscore.Internal.Correction>
   9.000000E+99

