#       Name:                CT1002167954
#       Creating user name   hitesit
#       Creation time:       Sun Apr 16 02:36:45 2023


#       File generated by GOLD software.
#

@<TRIPOS>MOLECULE
CT1002167954|ligand_prepared|mol2|1|dock2
    29    30     1
SMALL
NO_CHARGES


@<TRIPOS>ATOM
      1 C1         252.3911 389.7113 -101.4813 C.3            1 RES1               0.0000
      2 C2         250.9544 389.4939 -100.9639 C.ar           1 RES1               0.0000
      3 C3         252.2587 390.3968 -102.8380 C.2            1 RES1               0.0000
      4 C4         253.1018 390.5518 -100.4263 C.2            1 RES1               0.0000
      5 C5         253.1925 388.4020 -101.6685 C.3            1 RES1               0.0000
      6 C6         250.7098 388.6480 -99.8862 C.ar           1 RES1               0.0000
      7 C7         249.8659 390.1331 -101.5513 C.ar           1 RES1               0.0000
      8 N8         252.5710 391.7224 -102.9093 N.am           1 RES1               0.0000
      9 O9         251.8487 389.7930 -103.8217 O.2            1 RES1               0.0000
     10 N10        253.4922 391.8192 -100.7711 N.am           1 RES1               0.0000
     11 O11        253.3124 390.1340 -99.2943 O.2            1 RES1               0.0000
     12 C12        254.5359 388.5981 -102.3534 C.3            1 RES1               0.0000
     13 C13        249.4239 388.4507 -99.4110 C.ar           1 RES1               0.0000
     14 C14        248.5807 389.9342 -101.0746 C.ar           1 RES1               0.0000
     15 C15        253.2317 392.4537 -101.9551 C.2            1 RES1               0.0000
     16 C16        248.3587 389.0938 -100.0045 C.ar           1 RES1               0.0000
     17 O17        253.5680 393.6144 -102.1710 O.2            1 RES1               0.0000
     18 H18        253.3609 387.9472 -100.6846 H              1 RES1               0.0000
     19 H19        252.5920 387.7024 -102.2629 H              1 RES1               0.0000
     20 H20        251.5353 388.1314 -99.4080 H              1 RES1               0.0000
     21 H21        250.0167 390.7979 -102.3951 H              1 RES1               0.0000
     22 H22        252.2870 392.2156 -103.7498 H              1 RES1               0.0000
     23 H23        254.0267 392.3378 -100.0813 H              1 RES1               0.0000
     24 H24        255.0568 387.6489 -102.4599 H              1 RES1               0.0000
     25 H25        254.4045 389.0256 -103.3453 H              1 RES1               0.0000
     26 H26        255.1688 389.2691 -101.7762 H              1 RES1               0.0000
     27 H27        249.2543 387.7873 -98.5693 H              1 RES1               0.0000
     28 H28        247.7453 390.4419 -101.5452 H              1 RES1               0.0000
     29 H29        247.3515 388.9394 -99.6318 H              1 RES1               0.0000
@<TRIPOS>BOND
    1    1    2 1     
    2    1    3 1     
    3    1    4 1     
    4    1    5 1     
    5    2    6 ar    
    6    2    7 ar    
    7    3    8 1     
    8    3    9 2     
    9    4   10 1     
   10    4   11 2     
   11    5   12 1     
   12    5   18 1     
   13    5   19 1     
   14    6   13 ar    
   15    6   20 1     
   16    7   14 ar    
   17    7   21 1     
   18    8   15 1     
   19    8   22 1     
   20   10   15 1     
   21   10   23 1     
   22   12   24 1     
   23   12   25 1     
   24   12   26 1     
   25   13   16 ar    
   26   13   27 1     
   27   14   16 ar    
   28   14   28 1     
   29   15   17 2     
   30   16   29 1     
@<TRIPOS>SUBSTRUCTURE
      1 RES1           1
@<TRIPOS>SET
DONOR_HYDROGENS      STATIC     ATOMS    <user>   **** ""
2 22 23
ATOM$RED        STATIC     ATOMS    COLORGROUP SYSTEM
2 22 23
@<TRIPOS>COMMENT
> <Gold.Version>
2022.3.0

> <Gold.Id.Protein>
unknown|7ts3_clean|pdb

> <Gold.Protein.RotatedTorsions>
[ 1244 1203 1204 1205 ] final  134.34 input  115.91 | X-H torsion
[ 1316 1285 1286 1287 ] final -126.96 input  116.80 | X-H torsion
[ 1474 1426 1427 1428 ] final  100.30 input   84.58 | X-H torsion
[ 1484 1434 1433 1432 ] final   35.75 input   60.01 | X-H torsion
[ 1526 1505 1506 1507 ] final   52.81 input   90.12 | X-H torsion
[ 3997 3964 3965 3966 ] final   44.73 input  106.83 | X-H torsion
[ 4216 4196 4195 4192 ] final   67.32 input   60.00 | X-H torsion
[ 6608 6572 6571 6569 ] final -176.45 input   60.00 | X-H torsion
[ 25713 25680 25681 25682 ] final   71.13 input   66.88 | X-H torsion
[ 4080 4041 4042 4043 ] final  -44.30 input  118.05 | X-H torsion
[ 4256 4235 4236 4237 ] final   25.41 input  121.49 | X-H torsion
[ 23722 23672 23673 23674 ] final -123.05 input   67.42 | X-H torsion
[ 23760 23747 23748 23749 ] final -118.27 input  -89.77 | X-H torsion
[ 4260 4240 4239 4236 ] final  149.11 input   60.02 | X-H torsion
[ 1178 1150 1148 1145 ] final  128.09 input   60.00 | X-H torsion
[ 25482 25446 25445 25443 ] final  -29.80 input   60.01 | X-H torsion
[ 4422 4372 4371 4370 ] final   -5.35 input   59.99 | X-H torsion
[ 23788 23775 23776 23777 ] final  156.74 input  -27.92 | X-H torsion
[ 27271 1147 1146 1145 ] final   40.34 input   -0.00 | X-H torsion
[ 27274 1206 1205 1204 ] final   99.22 input    0.00 | X-H torsion
[ 27278 1429 1428 1427 ] final  136.96 input    0.00 | X-H torsion
[ 27284 3967 3966 3965 ] final -119.55 input    0.00 | X-H torsion
[ 27291 23675 23674 23673 ] final  -62.93 input    0.00 | X-H torsion
[ 27294 25683 25682 25681 ] final   87.51 input    0.00 | X-H torsion
[ 27296 1350 1349 1348 ] final  145.37 input    0.00 | X-H torsion
[ 27298 3703 3702 3701 ] final   25.40 input   -0.00 | X-H torsion
[ 27304 6798 6797 6796 ] final   11.30 input    0.00 | X-H torsion
[ 27307 23613 23612 23611 ] final  131.65 input   -0.00 | X-H torsion
[ 27311 23778 23777 23776 ] final  120.31 input   -0.00 | X-H torsion
[ 27313 4194 4193 4192 ] final   22.15 input    0.00 | X-H torsion

> <Gold.Protein.ActiveResidues>
 THR320  LEU321  HIS322  LEU323  LYS324  SER325  THR326  GLU365  PHE366  GLN369 
 TYR370  SER372  SER373  LYS375  TYR408  HIS412  ARG415  ASN416  TRP426  GLU670 
 CYS673  ARG674  GLY675  GLY676  TYR703  LEU705  THR706  PRO707 

> <Gold.Protein.RotatedAtoms>
  256.6515  381.3715 -102.1876 H   0  0  0  0  0  0  0  0  0  0  0  0  # atno 1178 bound_to 1150
  253.3072  380.8295 -103.0051 H   0  0  0  0  0  0  0  0  0  0  0  0  # atno 1244 bound_to 1203
  250.4084  381.2978 -101.6593 H   0  0  0  0  0  0  0  0  0  0  0  0  # atno 1316 bound_to 1285
  250.9616  382.9246  -98.2293 H   0  0  0  0  0  0  0  0  0  0  0  0  # atno 1474 bound_to 1426
  255.0087  383.8475  -98.3223 H   0  0  0  0  0  0  0  0  0  0  0  0  # atno 1484 bound_to 1434
  255.0478  383.3539  -99.9033 H   0  0  0  0  0  0  0  0  0  0  0  0  # atno 1485 bound_to 1434
  256.0155  384.6017  -99.4011 H   0  0  0  0  0  0  0  0  0  0  0  0  # atno 1486 bound_to 1434
  248.2788  383.1097  -96.5881 H   0  0  0  0  0  0  0  0  0  0  0  0  # atno 1526 bound_to 1505
  252.4642  396.0716  -97.0039 H   0  0  0  0  0  0  0  0  0  0  0  0  # atno 3997 bound_to 3964
  253.4817  396.0076  -99.3031 H   0  0  0  0  0  0  0  0  0  0  0  0  # atno 4080 bound_to 4041
  258.9475  393.2553  -98.8012 H   0  0  0  0  0  0  0  0  0  0  0  0  # atno 4216 bound_to 4196
  256.9013  396.4536 -101.3452 H   0  0  0  0  0  0  0  0  0  0  0  0  # atno 4256 bound_to 4235
  254.1404  397.3915 -104.3903 H   0  0  0  0  0  0  0  0  0  0  0  0  # atno 4260 bound_to 4240
  261.0444  392.8865 -104.4404 H   0  0  0  0  0  0  0  0  0  0  0  0  # atno 4422 bound_to 4372
  259.7516  393.2187 -105.4233 H   0  0  0  0  0  0  0  0  0  0  0  0  # atno 4423 bound_to 4372
  261.1667  392.6550 -106.0765 H   0  0  0  0  0  0  0  0  0  0  0  0  # atno 4424 bound_to 4372
  250.8979  394.3096 -102.0286 H   0  0  0  0  0  0  0  0  0  0  0  0  # atno 6608 bound_to 6572
  256.9669  385.9434 -108.2885 H   0  0  0  0  0  0  0  0  0  0  0  0  # atno 23722 bound_to 23672
  256.1799  383.2370 -107.1483 H   0  0  0  0  0  0  0  0  0  0  0  0  # atno 23760 bound_to 23747
  253.7936  381.4708 -105.8342 H   0  0  0  0  0  0  0  0  0  0  0  0  # atno 23788 bound_to 23775
  249.0433  381.9983 -104.6625 H   0  0  0  0  0  0  0  0  0  0  0  0  # atno 25482 bound_to 25446
  245.1864  389.0770  -99.1832 H   0  0  0  0  0  0  0  0  0  0  0  0  # atno 25713 bound_to 25680
  254.3426  380.6337  -99.2958 LP  0  0  0  0  0  0  0  0  0  0  0  0  # atno 27271 bound_to 1147
  252.6472  380.9133  -99.5139 LP  0  0  0  0  0  0  0  0  0  0  0  0  # atno 27272 bound_to 1147
  253.2382  380.3820 -101.3145 LP  0  0  0  0  0  0  0  0  0  0  0  0  # atno 27273 bound_to 1203
  249.6680  383.2939 -100.5437 LP  0  0  0  0  0  0  0  0  0  0  0  0  # atno 27274 bound_to 1206
  250.9029  383.0594  -99.3522 LP  0  0  0  0  0  0  0  0  0  0  0  0  # atno 27275 bound_to 1206
  251.3782  380.2390 -100.6639 LP  0  0  0  0  0  0  0  0  0  0  0  0  # atno 27276 bound_to 1285
  250.4090  382.4660  -96.6330 LP  0  0  0  0  0  0  0  0  0  0  0  0  # atno 27277 bound_to 1426
  247.7123  386.2811  -97.9562 LP  0  0  0  0  0  0  0  0  0  0  0  0  # atno 27278 bound_to 1429
  248.7911  386.7226  -96.6751 LP  0  0  0  0  0  0  0  0  0  0  0  0  # atno 27279 bound_to 1429
  248.6000  384.4022  -97.7200 LP  0  0  0  0  0  0  0  0  0  0  0  0  # atno 27280 bound_to 1505
  253.5040  394.8666  -96.2942 LP  0  0  0  0  0  0  0  0  0  0  0  0  # atno 27283 bound_to 3964
  255.0270  395.8876 -100.5913 LP  0  0  0  0  0  0  0  0  0  0  0  0  # atno 27284 bound_to 3967
  254.0023  394.5627 -101.0328 LP  0  0  0  0  0  0  0  0  0  0  0  0  # atno 27285 bound_to 3967
  258.3619  393.0830 -100.3095 LP  0  0  0  0  0  0  0  0  0  0  0  0  # atno 27286 bound_to 4196
  257.7112  392.2337  -99.0759 LP  0  0  0  0  0  0  0  0  0  0  0  0  # atno 27287 bound_to 4196
  252.4319  394.6783 -102.4277 LP  0  0  0  0  0  0  0  0  0  0  0  0  # atno 27288 bound_to 6572
  251.4904  393.8484 -103.4724 LP  0  0  0  0  0  0  0  0  0  0  0  0  # atno 27289 bound_to 6572
  255.4361  385.2286 -104.1714 LP  0  0  0  0  0  0  0  0  0  0  0  0  # atno 27291 bound_to 23675
  254.0027  384.2976 -104.4521 LP  0  0  0  0  0  0  0  0  0  0  0  0  # atno 27292 bound_to 23675
  244.1738  388.7096 -100.5519 LP  0  0  0  0  0  0  0  0  0  0  0  0  # atno 27293 bound_to 25680
  246.8072  390.8358 -100.8294 LP  0  0  0  0  0  0  0  0  0  0  0  0  # atno 27294 bound_to 25683
  246.7589  391.7524  -99.3606 LP  0  0  0  0  0  0  0  0  0  0  0  0  # atno 27295 bound_to 25683
  250.6685  383.4037  -94.8007 LP  0  0  0  0  0  0  0  0  0  0  0  0  # atno 27296 bound_to 1350
  249.9975  381.8205  -94.5934 LP  0  0  0  0  0  0  0  0  0  0  0  0  # atno 27297 bound_to 1350
  250.9541  393.5749  -95.3940 LP  0  0  0  0  0  0  0  0  0  0  0  0  # atno 27298 bound_to 3703
  250.7631  395.0819  -96.2263 LP  0  0  0  0  0  0  0  0  0  0  0  0  # atno 27299 bound_to 3703
  252.0297  396.8484  -98.8209 LP  0  0  0  0  0  0  0  0  0  0  0  0  # atno 27302 bound_to 4041
  256.4228  394.7740 -101.2700 LP  0  0  0  0  0  0  0  0  0  0  0  0  # atno 27303 bound_to 4235
  245.8972  391.2137 -106.2675 LP  0  0  0  0  0  0  0  0  0  0  0  0  # atno 27304 bound_to 6798
  244.1693  391.2963 -106.1799 LP  0  0  0  0  0  0  0  0  0  0  0  0  # atno 27305 bound_to 6798
  257.4410  387.3218 -106.9622 LP  0  0  0  0  0  0  0  0  0  0  0  0  # atno 27307 bound_to 23613
  258.8873  386.4128 -107.2488 LP  0  0  0  0  0  0  0  0  0  0  0  0  # atno 27308 bound_to 23613
  255.8775  384.6380 -108.7030 LP  0  0  0  0  0  0  0  0  0  0  0  0  # atno 27309 bound_to 23672
  254.9310  384.0691 -106.2558 LP  0  0  0  0  0  0  0  0  0  0  0  0  # atno 27310 bound_to 23747
  251.1720  383.5611 -108.7020 LP  0  0  0  0  0  0  0  0  0  0  0  0  # atno 27311 bound_to 23778
  251.5560  383.9561 -107.0599 LP  0  0  0  0  0  0  0  0  0  0  0  0  # atno 27312 bound_to 23778
  259.6276  394.8009 -101.3531 LP  0  0  0  0  0  0  0  0  0  0  0  0  # atno 27313 bound_to 4194
  258.9271  395.5352 -102.7567 LP  0  0  0  0  0  0  0  0  0  0  0  0  # atno 27314 bound_to 4194
  255.6596  397.6896 -103.8880 LP  0  0  0  0  0  0  0  0  0  0  0  0  # atno 27315 bound_to 4240
  254.4657  397.4634 -102.7972 LP  0  0  0  0  0  0  0  0  0  0  0  0  # atno 27316 bound_to 4240

> <Gold.Score>
     Fitness  S(hb_ext) S(vdw_ext)  S(hb_int)    S(int)      intcor
     39.45       4.19      26.63       0.00      -1.35      -0.76

> <Gold.Goldscore.Fitness>
39.4504

> <Gold.Goldscore.Internal.Vdw>
-1.6415

> <Gold.Goldscore.Internal.Torsion>
-0.4693

> <Gold.Goldscore.External.Vdw>
26.6282

> <Gold.Goldscore.Internal.HBond>
0.0000

> <Gold.Goldscore.External.HBond>
4.1889

> <Gold.Goldscore.Internal.Correction>
-0.7585

> <Gold.Goldscore.Hbonds>
donor molecule, donor type, donor heavy atom, donor atom, acceptor molecule, acceptor atom, score
      P1  H 23679 23730       L1     9  0.49
      P1  H 23682 23734       L1     9  0.15
      L1  H     8    22       P1  6804  0.06

> <Gold.Goldscore.Internal.Vdw.Weighted>
-1.6415

> <Gold.Goldscore.Internal.Torsion.Weighted>
-0.4693

> <Gold.Goldscore.External.Vdw.Weighted>
36.6137

> <Gold.Goldscore.Internal.HBond.Weighted>
0.0000

> <Gold.Goldscore.External.HBond.Weighted>
4.1889

> <Gold.Goldscore.Internal.Correction.Weighted>
-0.7585

> <Gold.Rescore>
     Score     S(PLP)   S(hbond)     S(cho)   S(metal)  DE(clash)   DE(tors)     intcor
     37.94     -34.47       1.69       0.00       0.00       1.33       0.13       ----

> <Gold.PLP.Fitness>
37.9414

> <Gold.PLP.PLP>
-34.4731

> <Gold.PLP.part.hbond>
-3.0000

> <Gold.PLP.part.metal>
0.0000

> <Gold.PLP.part.buried>
-3.3513

> <Gold.PLP.part.nonpolar>
-31.5927

> <Gold.PLP.part.repulsive>
3.0559

> <Gold.PLP.ligand.clash>
1.3274

> <Gold.PLP.ligand.torsion>
0.1342

> <Gold.PLP.Chemscore.Hbond>
1.6880

> <Gold.PLP.Chemscore.CHOScore>
0.0000

> <Gold.PLP.Chemscore.Metal>
0.0000

> <Gold.Chemscore.Hbonds>
donor molecule, donor type, donor heavy atom, donor atom, acceptor molecule, acceptor atom, score
      P1  H 23679 23730       L1     9  1.00
      P1  H 23682 23734       L1     9  0.74

> <Gold.PLP.Chemscore.Internal.Correction>
   9.000000E+99

