#       Name:                CT1002167954
#       Creating user name   hitesit
#       Creation time:       Sun Apr 16 02:36:47 2023


#       File generated by GOLD software.
#

@<TRIPOS>MOLECULE
CT1002167954|ligand_prepared|mol2|1|dock7
    29    30     1
SMALL
NO_CHARGES


@<TRIPOS>ATOM
      1 C1         254.0588 391.1261 -102.4711 C.3            1 RES1               0.0000
      2 C2         254.4165 391.6112 -103.8908 C.ar           1 RES1               0.0000
      3 C3         252.9525 392.0491 -101.9689 C.2            1 RES1               0.0000
      4 C4         253.6362 389.6680 -102.6124 C.2            1 RES1               0.0000
      5 C5         255.2395 391.1868 -101.4741 C.3            1 RES1               0.0000
      6 C6         255.6297 391.2599 -104.4751 C.ar           1 RES1               0.0000
      7 C7         253.5438 392.4070 -104.6282 C.ar           1 RES1               0.0000
      8 N8         251.6860 391.5461 -101.9148 N.am           1 RES1               0.0000
      9 O9         253.1811 393.2128 -101.6625 O.2            1 RES1               0.0000
     10 N10        252.3330 389.3474 -102.3354 N.am           1 RES1               0.0000
     11 O11        254.4158 388.7965 -102.9772 O.2            1 RES1               0.0000
     12 C12        254.8467 390.8742 -100.0388 C.3            1 RES1               0.0000
     13 C13        255.9575 391.6861 -105.7514 C.ar           1 RES1               0.0000
     14 C14        253.8737 392.8324 -105.9044 C.ar           1 RES1               0.0000
     15 C15        251.3312 390.2255 -102.0227 C.2            1 RES1               0.0000
     16 C16        255.0797 392.4722 -106.4671 C.ar           1 RES1               0.0000
     17 O17        250.1712 389.8672 -101.8406 O.2            1 RES1               0.0000
     18 H18        256.0083 390.4724 -101.7934 H              1 RES1               0.0000
     19 H19        255.6798 392.1910 -101.5090 H              1 RES1               0.0000
     20 H20        256.3342 390.6439 -103.9262 H              1 RES1               0.0000
     21 H21        252.5900 392.7036 -104.2052 H              1 RES1               0.0000
     22 H22        250.9330 392.2137 -101.7819 H              1 RES1               0.0000
     23 H23        252.0869 388.3631 -102.3649 H              1 RES1               0.0000
     24 H24        255.7115 390.9307 -99.3812 H              1 RES1               0.0000
     25 H25        254.1015 391.5812 -99.6801 H              1 RES1               0.0000
     26 H26        254.4280 389.8728 -99.9629 H              1 RES1               0.0000
     27 H27        256.9084 391.4010 -106.1892 H              1 RES1               0.0000
     28 H28        253.1801 393.4515 -106.4638 H              1 RES1               0.0000
     29 H29        255.3365 392.8057 -107.4671 H              1 RES1               0.0000
@<TRIPOS>BOND
    1    1    2 1     
    2    1    3 1     
    3    1    4 1     
    4    1    5 1     
    5    2    6 ar    
    6    2    7 ar    
    7    3    8 1     
    8    3    9 2     
    9    4   10 1     
   10    4   11 2     
   11    5   12 1     
   12    5   18 1     
   13    5   19 1     
   14    6   13 ar    
   15    6   20 1     
   16    7   14 ar    
   17    7   21 1     
   18    8   15 1     
   19    8   22 1     
   20   10   15 1     
   21   10   23 1     
   22   12   24 1     
   23   12   25 1     
   24   12   26 1     
   25   13   16 ar    
   26   13   27 1     
   27   14   16 ar    
   28   14   28 1     
   29   15   17 2     
   30   16   29 1     
@<TRIPOS>SUBSTRUCTURE
      1 RES1           1
@<TRIPOS>SET
DONOR_HYDROGENS      STATIC     ATOMS    <user>   **** ""
2 22 23
ATOM$RED        STATIC     ATOMS    COLORGROUP SYSTEM
2 22 23
@<TRIPOS>COMMENT
> <Gold.Version>
2022.3.0

> <Gold.Id.Protein>
unknown|7ts3_clean|pdb

> <Gold.Protein.RotatedTorsions>
[ 1244 1203 1204 1205 ] final  127.53 input  115.91 | X-H torsion
[ 1316 1285 1286 1287 ] final   37.45 input  116.80 | X-H torsion
[ 1474 1426 1427 1428 ] final -125.04 input   84.58 | X-H torsion
[ 1484 1434 1433 1432 ] final  107.98 input   60.01 | X-H torsion
[ 1526 1505 1506 1507 ] final   81.67 input   90.12 | X-H torsion
[ 3997 3964 3965 3966 ] final -101.48 input  106.83 | X-H torsion
[ 4216 4196 4195 4192 ] final   39.81 input   60.00 | X-H torsion
[ 6608 6572 6571 6569 ] final   28.01 input   60.00 | X-H torsion
[ 25713 25680 25681 25682 ] final  120.85 input   66.88 | X-H torsion
[ 4080 4041 4042 4043 ] final  -99.08 input  118.05 | X-H torsion
[ 4256 4235 4236 4237 ] final  138.96 input  121.49 | X-H torsion
[ 23722 23672 23673 23674 ] final  -10.52 input   67.42 | X-H torsion
[ 23760 23747 23748 23749 ] final  -52.50 input  -89.77 | X-H torsion
[ 4260 4240 4239 4236 ] final   17.01 input   60.02 | X-H torsion
[ 1178 1150 1148 1145 ] final   59.09 input   60.00 | X-H torsion
[ 25482 25446 25445 25443 ] final  -32.51 input   60.01 | X-H torsion
[ 4422 4372 4371 4370 ] final   85.20 input   59.99 | X-H torsion
[ 23788 23775 23776 23777 ] final  -20.80 input  -27.92 | X-H torsion
[ 27271 1147 1146 1145 ] final  176.30 input   -0.00 | X-H torsion
[ 27274 1206 1205 1204 ] final  133.95 input    0.00 | X-H torsion
[ 27278 1429 1428 1427 ] final   72.94 input    0.00 | X-H torsion
[ 27284 3967 3966 3965 ] final  163.30 input    0.00 | X-H torsion
[ 27291 23675 23674 23673 ] final -150.61 input    0.00 | X-H torsion
[ 27294 25683 25682 25681 ] final  -85.87 input    0.00 | X-H torsion
[ 27296 1350 1349 1348 ] final  125.33 input    0.00 | X-H torsion
[ 27298 3703 3702 3701 ] final   84.20 input   -0.00 | X-H torsion
[ 27304 6798 6797 6796 ] final   33.68 input    0.00 | X-H torsion
[ 27307 23613 23612 23611 ] final  173.05 input   -0.00 | X-H torsion
[ 27311 23778 23777 23776 ] final  -55.47 input   -0.00 | X-H torsion
[ 27313 4194 4193 4192 ] final  123.12 input    0.00 | X-H torsion

> <Gold.Protein.ActiveResidues>
 THR320  LEU321  HIS322  LEU323  LYS324  SER325  THR326  GLU365  PHE366  GLN369 
 TYR370  SER372  SER373  LYS375  TYR408  HIS412  ARG415  ASN416  TRP426  GLU670 
 CYS673  ARG674  GLY675  GLY676  TYR703  LEU705  THR706  PRO707 

> <Gold.Protein.RotatedAtoms>
  255.6299  381.3088 -102.4671 H   0  0  0  0  0  0  0  0  0  0  0  0  # atno 1178 bound_to 1150
  253.2194  380.7720 -103.0174 H   0  0  0  0  0  0  0  0  0  0  0  0  # atno 1244 bound_to 1203
  251.4128  380.4260 -100.5212 H   0  0  0  0  0  0  0  0  0  0  0  0  # atno 1316 bound_to 1285
  251.0646  382.6280  -96.6174 H   0  0  0  0  0  0  0  0  0  0  0  0  # atno 1474 bound_to 1426
  254.7193  383.2216  -99.2150 H   0  0  0  0  0  0  0  0  0  0  0  0  # atno 1484 bound_to 1434
  255.8163  384.1718 -100.0142 H   0  0  0  0  0  0  0  0  0  0  0  0  # atno 1485 bound_to 1434
  255.5366  384.4097  -98.3984 H   0  0  0  0  0  0  0  0  0  0  0  0  # atno 1486 bound_to 1434
  248.2959  382.9102  -96.9807 H   0  0  0  0  0  0  0  0  0  0  0  0  # atno 1526 bound_to 1505
  253.8048  395.2513  -96.4299 H   0  0  0  0  0  0  0  0  0  0  0  0  # atno 3997 bound_to 3964
  252.7977  395.8251  -99.6960 H   0  0  0  0  0  0  0  0  0  0  0  0  # atno 4080 bound_to 4041
  259.0511  393.4354  -99.1947 H   0  0  0  0  0  0  0  0  0  0  0  0  # atno 4216 bound_to 4196
  255.7837  395.4873 -101.2491 H   0  0  0  0  0  0  0  0  0  0  0  0  # atno 4256 bound_to 4235
  255.6736  397.6911 -103.6903 H   0  0  0  0  0  0  0  0  0  0  0  0  # atno 4260 bound_to 4240
  259.8340  393.2461 -104.9443 H   0  0  0  0  0  0  0  0  0  0  0  0  # atno 4422 bound_to 4372
  260.7339  392.7832 -106.2572 H   0  0  0  0  0  0  0  0  0  0  0  0  # atno 4423 bound_to 4372
  261.3952  392.7307 -104.7384 H   0  0  0  0  0  0  0  0  0  0  0  0  # atno 4424 bound_to 4372
  252.4714  394.4510 -102.9527 H   0  0  0  0  0  0  0  0  0  0  0  0  # atno 6608 bound_to 6572
  256.6606  384.5048 -108.1424 H   0  0  0  0  0  0  0  0  0  0  0  0  # atno 23722 bound_to 23672
  255.2531  383.1849 -107.3803 H   0  0  0  0  0  0  0  0  0  0  0  0  # atno 23760 bound_to 23747
  253.4279  382.5926 -107.1550 H   0  0  0  0  0  0  0  0  0  0  0  0  # atno 23788 bound_to 23775
  249.0192  381.9866 -104.6976 H   0  0  0  0  0  0  0  0  0  0  0  0  # atno 25482 bound_to 25446
  244.5140  388.8371  -99.0139 H   0  0  0  0  0  0  0  0  0  0  0  0  # atno 25713 bound_to 25680
  252.9978  381.4498  -99.6182 LP  0  0  0  0  0  0  0  0  0  0  0  0  # atno 27271 bound_to 1147
  253.9919  380.0972  -99.1914 LP  0  0  0  0  0  0  0  0  0  0  0  0  # atno 27272 bound_to 1147
  253.3232  380.4378 -101.3026 LP  0  0  0  0  0  0  0  0  0  0  0  0  # atno 27273 bound_to 1203
  249.4915  382.9454 -100.2052 LP  0  0  0  0  0  0  0  0  0  0  0  0  # atno 27274 bound_to 1206
  251.0794  383.4079  -99.6907 LP  0  0  0  0  0  0  0  0  0  0  0  0  # atno 27275 bound_to 1206
  250.3962  381.0914 -101.7767 LP  0  0  0  0  0  0  0  0  0  0  0  0  # atno 27276 bound_to 1285
  250.3094  382.7527  -98.1915 LP  0  0  0  0  0  0  0  0  0  0  0  0  # atno 27277 bound_to 1426
  248.5737  386.5545  -98.1179 LP  0  0  0  0  0  0  0  0  0  0  0  0  # atno 27278 bound_to 1429
  247.9296  386.4492  -96.5135 LP  0  0  0  0  0  0  0  0  0  0  0  0  # atno 27279 bound_to 1429
  248.5833  384.5971  -97.3366 LP  0  0  0  0  0  0  0  0  0  0  0  0  # atno 27280 bound_to 1505
  252.1728  395.6812  -96.8643 LP  0  0  0  0  0  0  0  0  0  0  0  0  # atno 27283 bound_to 3964
  254.1866  395.8831 -101.2698 LP  0  0  0  0  0  0  0  0  0  0  0  0  # atno 27284 bound_to 3967
  254.8426  394.5672 -100.3543 LP  0  0  0  0  0  0  0  0  0  0  0  0  # atno 27285 bound_to 3967
  258.0285  392.7850 -100.2804 LP  0  0  0  0  0  0  0  0  0  0  0  0  # atno 27286 bound_to 4196
  257.9403  392.3503  -98.7088 LP  0  0  0  0  0  0  0  0  0  0  0  0  # atno 27287 bound_to 4196
  250.9958  393.8039 -103.1819 LP  0  0  0  0  0  0  0  0  0  0  0  0  # atno 27288 bound_to 6572
  251.3424  394.5804 -101.7878 LP  0  0  0  0  0  0  0  0  0  0  0  0  # atno 27289 bound_to 6572
  255.1637  384.0662 -104.0530 LP  0  0  0  0  0  0  0  0  0  0  0  0  # atno 27291 bound_to 23675
  254.2751  385.4600 -104.5705 LP  0  0  0  0  0  0  0  0  0  0  0  0  # atno 27292 bound_to 23675
  244.8435  388.9484 -100.7205 LP  0  0  0  0  0  0  0  0  0  0  0  0  # atno 27293 bound_to 25680
  246.7313  391.6675  -99.3153 LP  0  0  0  0  0  0  0  0  0  0  0  0  # atno 27294 bound_to 25683
  246.8349  390.9206 -100.8747 LP  0  0  0  0  0  0  0  0  0  0  0  0  # atno 27295 bound_to 25683
  250.9159  383.2522  -94.7192 LP  0  0  0  0  0  0  0  0  0  0  0  0  # atno 27296 bound_to 1350
  249.7501  381.9720  -94.6750 LP  0  0  0  0  0  0  0  0  0  0  0  0  # atno 27297 bound_to 1350
  250.4110  393.6256  -96.0463 LP  0  0  0  0  0  0  0  0  0  0  0  0  # atno 27298 bound_to 3703
  251.3062  395.0312  -95.5741 LP  0  0  0  0  0  0  0  0  0  0  0  0  # atno 27299 bound_to 3703
  252.7026  397.0280  -98.4344 LP  0  0  0  0  0  0  0  0  0  0  0  0  # atno 27302 bound_to 4041
  257.5128  395.7165 -101.3637 LP  0  0  0  0  0  0  0  0  0  0  0  0  # atno 27303 bound_to 4235
  245.8494  391.2307 -105.9351 LP  0  0  0  0  0  0  0  0  0  0  0  0  # atno 27304 bound_to 6798
  244.2171  391.2793 -106.5122 LP  0  0  0  0  0  0  0  0  0  0  0  0  # atno 27305 bound_to 6798
  257.4639  386.8308 -106.5973 LP  0  0  0  0  0  0  0  0  0  0  0  0  # atno 27307 bound_to 23613
  258.8644  386.9039 -107.6137 LP  0  0  0  0  0  0  0  0  0  0  0  0  # atno 27308 bound_to 23613
  256.1743  386.0322 -108.8447 LP  0  0  0  0  0  0  0  0  0  0  0  0  # atno 27309 bound_to 23672
  255.8407  384.1201 -106.0280 LP  0  0  0  0  0  0  0  0  0  0  0  0  # atno 27310 bound_to 23747
  251.6153  383.9355 -107.0712 LP  0  0  0  0  0  0  0  0  0  0  0  0  # atno 27311 bound_to 23778
  251.1127  383.5817 -108.6906 LP  0  0  0  0  0  0  0  0  0  0  0  0  # atno 27312 bound_to 23778
  258.9342  394.4771 -102.4484 LP  0  0  0  0  0  0  0  0  0  0  0  0  # atno 27313 bound_to 4194
  259.6205  395.8590 -101.6614 LP  0  0  0  0  0  0  0  0  0  0  0  0  # atno 27314 bound_to 4194
  254.2875  397.4286 -102.8785 LP  0  0  0  0  0  0  0  0  0  0  0  0  # atno 27315 bound_to 4240
  254.2942  397.4228 -104.5115 LP  0  0  0  0  0  0  0  0  0  0  0  0  # atno 27316 bound_to 4240

> <Gold.Score>
     Fitness  S(hb_ext) S(vdw_ext)  S(hb_int)    S(int)      intcor
     31.27       6.75      18.66       0.00      -1.13      -0.76

> <Gold.Goldscore.Fitness>
31.2727

> <Gold.Goldscore.Internal.Vdw>
-1.4390

> <Gold.Goldscore.Internal.Torsion>
-0.4536

> <Gold.Goldscore.External.Vdw>
18.6590

> <Gold.Goldscore.Internal.HBond>
0.0000

> <Gold.Goldscore.External.HBond>
6.7507

> <Gold.Goldscore.Internal.Correction>
-0.7585

> <Gold.Goldscore.Hbonds>
donor molecule, donor type, donor heavy atom, donor atom, acceptor molecule, acceptor atom, score
      P1  H 23679 23730       L1    11  0.02
      P1  H 23682 23734       L1    17  0.10
      P1  H  4041  4080       L1     9  0.03
      L1  H     8    22       P1  3972  1.00

> <Gold.Goldscore.Internal.Vdw.Weighted>
-1.4390

> <Gold.Goldscore.Internal.Torsion.Weighted>
-0.4536

> <Gold.Goldscore.External.Vdw.Weighted>
25.6561

> <Gold.Goldscore.Internal.HBond.Weighted>
0.0000

> <Gold.Goldscore.External.HBond.Weighted>
6.7507

> <Gold.Goldscore.Internal.Correction.Weighted>
-0.7585

> <Gold.Rescore>
     Score     S(PLP)   S(hbond)     S(cho)   S(metal)  DE(clash)   DE(tors)     intcor
     27.98     -22.32       2.36       0.00       0.00       1.36       0.03       ----

> <Gold.PLP.Fitness>
27.9836

> <Gold.PLP.PLP>
-22.3180

> <Gold.PLP.part.hbond>
-4.0000

> <Gold.PLP.part.metal>
0.0000

> <Gold.PLP.part.buried>
-5.4358

> <Gold.PLP.part.nonpolar>
-16.8859

> <Gold.PLP.part.repulsive>
3.5029

> <Gold.PLP.ligand.clash>
1.3634

> <Gold.PLP.ligand.torsion>
0.0255

> <Gold.PLP.Chemscore.Hbond>
2.3600

> <Gold.PLP.Chemscore.CHOScore>
0.0000

> <Gold.PLP.Chemscore.Metal>
0.0000

> <Gold.Chemscore.Hbonds>
donor molecule, donor type, donor heavy atom, donor atom, acceptor molecule, acceptor atom, score
      L1  H     8    22       P1  3972  0.70
      P1  H  6572  6608       L1     9  0.16
      P1  H 23682 23734       L1    17  0.19

> <Gold.PLP.Chemscore.Internal.Correction>
   9.000000E+99

