#       Name:                CT1002167954
#       Creating user name   hitesit
#       Creation time:       Sun Apr 16 02:36:49 2023


#       File generated by GOLD software.
#

@<TRIPOS>MOLECULE
CT1002167954|ligand_prepared|mol2|1|dock10
    29    30     1
SMALL
NO_CHARGES


@<TRIPOS>ATOM
      1 C1         254.0894 389.7587 -102.4966 C.3            1 RES1               0.0000
      2 C2         253.1759 389.5006 -101.2811 C.ar           1 RES1               0.0000
      3 C3         253.1711 390.1746 -103.6421 C.2            1 RES1               0.0000
      4 C4         255.0763 390.8387 -102.0670 C.2            1 RES1               0.0000
      5 C5         254.9009 388.5201 -102.9426 C.3            1 RES1               0.0000
      6 C6         252.3105 388.4109 -101.2637 C.ar           1 RES1               0.0000
      7 C7         253.1893 390.3404 -100.1705 C.ar           1 RES1               0.0000
      8 N8         253.1666 391.4898 -104.0027 N.am           1 RES1               0.0000
      9 O9         252.4328 389.3681 -104.1942 O.2            1 RES1               0.0000
     10 N10        255.0095 392.0555 -102.6936 N.am           1 RES1               0.0000
     11 O11        255.9001 390.6522 -101.1799 O.2            1 RES1               0.0000
     12 C12        255.8513 388.7931 -104.0977 C.3            1 RES1               0.0000
     13 C13        251.4903 388.1677 -100.1745 C.ar           1 RES1               0.0000
     14 C14        252.3680 390.0955 -99.0824 C.ar           1 RES1               0.0000
     15 C15        254.0793 392.4399 -103.6205 C.2            1 RES1               0.0000
     16 C16        251.5188 389.0094 -99.0830 C.ar           1 RES1               0.0000
     17 O17        254.0508 393.5702 -104.0989 O.2            1 RES1               0.0000
     18 H18        255.4810 388.1515 -102.0876 H              1 RES1               0.0000
     19 H19        254.2021 387.7285 -103.2400 H              1 RES1               0.0000
     20 H20        252.2724 387.7390 -102.1147 H              1 RES1               0.0000
     21 H21        253.8486 391.2014 -100.1484 H              1 RES1               0.0000
     22 H22        252.4151 391.7953 -104.6128 H              1 RES1               0.0000
     23 H23        255.7191 392.7379 -102.4463 H              1 RES1               0.0000
     24 H24        256.3955 387.8915 -104.3708 H              1 RES1               0.0000
     25 H25        255.3052 389.1376 -104.9734 H              1 RES1               0.0000
     26 H26        256.5765 389.5581 -103.8280 H              1 RES1               0.0000
     27 H27        250.8227 387.3124 -100.1805 H              1 RES1               0.0000
     28 H28        252.3934 390.7609 -98.2258 H              1 RES1               0.0000
     29 H29        250.8764 388.8185 -98.2297 H              1 RES1               0.0000
@<TRIPOS>BOND
    1    1    2 1     
    2    1    3 1     
    3    1    4 1     
    4    1    5 1     
    5    2    6 ar    
    6    2    7 ar    
    7    3    8 1     
    8    3    9 2     
    9    4   10 1     
   10    4   11 2     
   11    5   12 1     
   12    5   18 1     
   13    5   19 1     
   14    6   13 ar    
   15    6   20 1     
   16    7   14 ar    
   17    7   21 1     
   18    8   15 1     
   19    8   22 1     
   20   10   15 1     
   21   10   23 1     
   22   12   24 1     
   23   12   25 1     
   24   12   26 1     
   25   13   16 ar    
   26   13   27 1     
   27   14   16 ar    
   28   14   28 1     
   29   15   17 2     
   30   16   29 1     
@<TRIPOS>SUBSTRUCTURE
      1 RES1           1
@<TRIPOS>SET
DONOR_HYDROGENS      STATIC     ATOMS    <user>   **** ""
2 22 23
ATOM$RED        STATIC     ATOMS    COLORGROUP SYSTEM
2 22 23
@<TRIPOS>COMMENT
> <Gold.Version>
2022.3.0

> <Gold.Id.Protein>
unknown|7ts3_clean|pdb

> <Gold.Protein.RotatedTorsions>
[ 1244 1203 1204 1205 ] final  -87.84 input  115.91 | X-H torsion
[ 1316 1285 1286 1287 ] final   60.30 input  116.80 | X-H torsion
[ 1474 1426 1427 1428 ] final  120.48 input   84.58 | X-H torsion
[ 1484 1434 1433 1432 ] final   67.78 input   60.01 | X-H torsion
[ 1526 1505 1506 1507 ] final  146.17 input   90.12 | X-H torsion
[ 3997 3964 3965 3966 ] final  -50.58 input  106.83 | X-H torsion
[ 4216 4196 4195 4192 ] final -120.39 input   60.00 | X-H torsion
[ 6608 6572 6571 6569 ] final  -95.56 input   60.00 | X-H torsion
[ 25713 25680 25681 25682 ] final  -46.52 input   66.88 | X-H torsion
[ 4080 4041 4042 4043 ] final   80.05 input  118.05 | X-H torsion
[ 4256 4235 4236 4237 ] final  148.88 input  121.49 | X-H torsion
[ 23722 23672 23673 23674 ] final -120.45 input   67.42 | X-H torsion
[ 23760 23747 23748 23749 ] final  -53.97 input  -89.77 | X-H torsion
[ 4260 4240 4239 4236 ] final  147.55 input   60.02 | X-H torsion
[ 1178 1150 1148 1145 ] final   61.69 input   60.00 | X-H torsion
[ 25482 25446 25445 25443 ] final -178.01 input   60.01 | X-H torsion
[ 4422 4372 4371 4370 ] final   58.22 input   59.99 | X-H torsion
[ 23788 23775 23776 23777 ] final   43.01 input  -27.92 | X-H torsion
[ 27271 1147 1146 1145 ] final  -62.92 input   -0.00 | X-H torsion
[ 27274 1206 1205 1204 ] final  151.09 input    0.00 | X-H torsion
[ 27278 1429 1428 1427 ] final  167.64 input    0.00 | X-H torsion
[ 27284 3967 3966 3965 ] final -125.06 input    0.00 | X-H torsion
[ 27291 23675 23674 23673 ] final   -7.68 input    0.00 | X-H torsion
[ 27294 25683 25682 25681 ] final  167.74 input    0.00 | X-H torsion
[ 27296 1350 1349 1348 ] final   16.05 input    0.00 | X-H torsion
[ 27298 3703 3702 3701 ] final -117.66 input   -0.00 | X-H torsion
[ 27304 6798 6797 6796 ] final  -95.23 input    0.00 | X-H torsion
[ 27307 23613 23612 23611 ] final -129.50 input   -0.00 | X-H torsion
[ 27311 23778 23777 23776 ] final -171.57 input   -0.00 | X-H torsion
[ 27313 4194 4193 4192 ] final  103.51 input    0.00 | X-H torsion

> <Gold.Protein.ActiveResidues>
 THR320  LEU321  HIS322  LEU323  LYS324  SER325  THR326  GLU365  PHE366  GLN369 
 TYR370  SER372  SER373  LYS375  TYR408  HIS412  ARG415  ASN416  TRP426  GLU670 
 CYS673  ARG674  GLY675  GLY676  TYR703  LEU705  THR706  PRO707 

> <Gold.Protein.RotatedAtoms>
  255.6592  381.3291 -102.4442 H   0  0  0  0  0  0  0  0  0  0  0  0  # atno 1178 bound_to 1150
  253.7320  380.7643 -101.4027 H   0  0  0  0  0  0  0  0  0  0  0  0  # atno 1244 bound_to 1203
  251.3600  380.1455 -100.7236 H   0  0  0  0  0  0  0  0  0  0  0  0  # atno 1316 bound_to 1285
  251.2281  382.9507  -98.0696 H   0  0  0  0  0  0  0  0  0  0  0  0  # atno 1474 bound_to 1426
  254.7656  383.4785  -98.6113 H   0  0  0  0  0  0  0  0  0  0  0  0  # atno 1484 bound_to 1434
  255.4032  383.6730 -100.1280 H   0  0  0  0  0  0  0  0  0  0  0  0  # atno 1485 bound_to 1434
  255.9033  384.6514  -98.8877 H   0  0  0  0  0  0  0  0  0  0  0  0  # atno 1486 bound_to 1434
  248.4422  383.2217  -97.8595 H   0  0  0  0  0  0  0  0  0  0  0  0  # atno 1526 bound_to 1505
  253.7263  395.9150  -96.7732 H   0  0  0  0  0  0  0  0  0  0  0  0  # atno 3997 bound_to 3964
  252.7139  397.0319  -98.4177 H   0  0  0  0  0  0  0  0  0  0  0  0  # atno 4080 bound_to 4041
  257.6888  392.4023  -99.8863 H   0  0  0  0  0  0  0  0  0  0  0  0  # atno 4216 bound_to 4196
  255.8169  395.3380 -101.2483 H   0  0  0  0  0  0  0  0  0  0  0  0  # atno 4256 bound_to 4235
  254.1593  397.3951 -104.4071 H   0  0  0  0  0  0  0  0  0  0  0  0  # atno 4260 bound_to 4240
  260.0967  393.1967 -104.5867 H   0  0  0  0  0  0  0  0  0  0  0  0  # atno 4422 bound_to 4372
  260.3159  392.9331 -106.2085 H   0  0  0  0  0  0  0  0  0  0  0  0  # atno 4423 bound_to 4372
  261.5503  392.6302 -105.1448 H   0  0  0  0  0  0  0  0  0  0  0  0  # atno 4424 bound_to 4372
  250.9597  393.8151 -103.1367 H   0  0  0  0  0  0  0  0  0  0  0  0  # atno 6608 bound_to 6572
  256.9892  385.9169 -108.2677 H   0  0  0  0  0  0  0  0  0  0  0  0  # atno 23722 bound_to 23672
  255.2743  383.1787 -107.3849 H   0  0  0  0  0  0  0  0  0  0  0  0  # atno 23760 bound_to 23747
  253.2399  382.7803 -106.2572 H   0  0  0  0  0  0  0  0  0  0  0  0  # atno 23788 bound_to 23775
  249.1256  380.2042 -104.7961 H   0  0  0  0  0  0  0  0  0  0  0  0  # atno 25482 bound_to 25446
  245.0237  388.9899 -100.6648 H   0  0  0  0  0  0  0  0  0  0  0  0  # atno 25713 bound_to 25680
  253.1432  379.9993  -99.2408 LP  0  0  0  0  0  0  0  0  0  0  0  0  # atno 27271 bound_to 1147
  253.8466  381.5477  -99.5688 LP  0  0  0  0  0  0  0  0  0  0  0  0  # atno 27272 bound_to 1147
  252.8269  380.4452 -102.8662 LP  0  0  0  0  0  0  0  0  0  0  0  0  # atno 27273 bound_to 1203
  249.5087  382.7966  -99.9949 LP  0  0  0  0  0  0  0  0  0  0  0  0  # atno 27274 bound_to 1206
  251.0622  383.5567  -99.9010 LP  0  0  0  0  0  0  0  0  0  0  0  0  # atno 27275 bound_to 1206
  250.4479  381.3657 -101.5788 LP  0  0  0  0  0  0  0  0  0  0  0  0  # atno 27276 bound_to 1285
  250.1513  382.4407  -96.7873 LP  0  0  0  0  0  0  0  0  0  0  0  0  # atno 27277 bound_to 1426
  247.4709  386.2273  -97.5705 LP  0  0  0  0  0  0  0  0  0  0  0  0  # atno 27278 bound_to 1429
  249.0325  386.7765  -97.0609 LP  0  0  0  0  0  0  0  0  0  0  0  0  # atno 27279 bound_to 1429
  248.4405  384.2929  -96.4785 LP  0  0  0  0  0  0  0  0  0  0  0  0  # atno 27280 bound_to 1505
  252.2507  395.0221  -96.5233 LP  0  0  0  0  0  0  0  0  0  0  0  0  # atno 27283 bound_to 3964
  254.9811  395.9348 -100.6422 LP  0  0  0  0  0  0  0  0  0  0  0  0  # atno 27284 bound_to 3967
  254.0482  394.5155 -100.9819 LP  0  0  0  0  0  0  0  0  0  0  0  0  # atno 27285 bound_to 3967
  258.4189  392.7132  -98.4658 LP  0  0  0  0  0  0  0  0  0  0  0  0  # atno 27286 bound_to 4196
  258.9218  393.4624  -99.8268 LP  0  0  0  0  0  0  0  0  0  0  0  0  # atno 27287 bound_to 4196
  251.3961  394.6030 -101.7812 LP  0  0  0  0  0  0  0  0  0  0  0  0  # atno 27288 bound_to 6572
  252.4640  394.4215 -103.0032 LP  0  0  0  0  0  0  0  0  0  0  0  0  # atno 27289 bound_to 6572
  254.7864  385.6170 -104.4399 LP  0  0  0  0  0  0  0  0  0  0  0  0  # atno 27291 bound_to 23675
  254.6524  383.9092 -104.1837 LP  0  0  0  0  0  0  0  0  0  0  0  0  # atno 27292 bound_to 23675
  244.3359  388.7963  -99.0763 LP  0  0  0  0  0  0  0  0  0  0  0  0  # atno 27293 bound_to 25680
  247.0245  391.9153 -100.6480 LP  0  0  0  0  0  0  0  0  0  0  0  0  # atno 27294 bound_to 25683
  246.5416  390.6729  -99.5420 LP  0  0  0  0  0  0  0  0  0  0  0  0  # atno 27295 bound_to 25683
  250.7247  381.8765  -94.4615 LP  0  0  0  0  0  0  0  0  0  0  0  0  # atno 27296 bound_to 1350
  249.9412  383.3477  -94.9326 LP  0  0  0  0  0  0  0  0  0  0  0  0  # atno 27297 bound_to 1350
  251.1316  395.1501  -95.8253 LP  0  0  0  0  0  0  0  0  0  0  0  0  # atno 27298 bound_to 3703
  250.5856  393.5067  -95.7950 LP  0  0  0  0  0  0  0  0  0  0  0  0  # atno 27299 bound_to 3703
  252.7850  395.8407  -99.6919 LP  0  0  0  0  0  0  0  0  0  0  0  0  # atno 27302 bound_to 4041
  257.4804  395.8621 -101.3645 LP  0  0  0  0  0  0  0  0  0  0  0  0  # atno 27303 bound_to 4235
  244.7439  391.2317 -107.0396 LP  0  0  0  0  0  0  0  0  0  0  0  0  # atno 27304 bound_to 6798
  245.3227  391.2783 -105.4078 LP  0  0  0  0  0  0  0  0  0  0  0  0  # atno 27305 bound_to 6798
  258.0395  386.2334 -106.5288 LP  0  0  0  0  0  0  0  0  0  0  0  0  # atno 27307 bound_to 23613
  258.2888  387.5012 -107.6822 LP  0  0  0  0  0  0  0  0  0  0  0  0  # atno 27308 bound_to 23613
  255.8559  384.6636 -108.7232 LP  0  0  0  0  0  0  0  0  0  0  0  0  # atno 27309 bound_to 23672
  255.8199  384.1262 -106.0236 LP  0  0  0  0  0  0  0  0  0  0  0  0  # atno 27310 bound_to 23747
  250.5385  383.9383 -108.0715 LP  0  0  0  0  0  0  0  0  0  0  0  0  # atno 27311 bound_to 23778
  252.1895  383.5790 -107.6904 LP  0  0  0  0  0  0  0  0  0  0  0  0  # atno 27312 bound_to 23778
  259.0516  394.3467 -102.2112 LP  0  0  0  0  0  0  0  0  0  0  0  0  # atno 27313 bound_to 4194
  259.5032  395.9894 -101.8986 LP  0  0  0  0  0  0  0  0  0  0  0  0  # atno 27314 bound_to 4194
  255.6645  397.6906 -103.8628 LP  0  0  0  0  0  0  0  0  0  0  0  0  # atno 27315 bound_to 4240
  254.4418  397.4588 -102.8055 LP  0  0  0  0  0  0  0  0  0  0  0  0  # atno 27316 bound_to 4240

> <Gold.Score>
     Fitness  S(hb_ext) S(vdw_ext)  S(hb_int)    S(int)      intcor
     31.87       7.98      18.78       0.00      -1.92      -0.76

> <Gold.Goldscore.Fitness>
31.8698

> <Gold.Goldscore.Internal.Vdw>
-2.3050

> <Gold.Goldscore.Internal.Torsion>
-0.3782

> <Gold.Goldscore.External.Vdw>
18.7768

> <Gold.Goldscore.Internal.HBond>
0.0000

> <Gold.Goldscore.External.HBond>
7.9765

> <Gold.Goldscore.Internal.Correction>
-0.7585

> <Gold.Goldscore.Hbonds>
donor molecule, donor type, donor heavy atom, donor atom, acceptor molecule, acceptor atom, score
      P1  H  4196  4216       L1    11  0.40
      P1  H 23679 23730       L1     9  0.98
      L1  H     8    22       P1  6804  0.22

> <Gold.Goldscore.Internal.Vdw.Weighted>
-2.3050

> <Gold.Goldscore.Internal.Torsion.Weighted>
-0.3782

> <Gold.Goldscore.External.Vdw.Weighted>
25.8180

> <Gold.Goldscore.Internal.HBond.Weighted>
0.0000

> <Gold.Goldscore.External.HBond.Weighted>
7.9765

> <Gold.Goldscore.Internal.Correction.Weighted>
-0.7585

> <Gold.Rescore>
     Score     S(PLP)   S(hbond)     S(cho)   S(metal)  DE(clash)   DE(tors)     intcor
     29.72     -27.23       1.57       0.00       0.00       1.33       0.44       ----

> <Gold.PLP.Fitness>
29.7213

> <Gold.PLP.PLP>
-27.2331

> <Gold.PLP.part.hbond>
-3.0000

> <Gold.PLP.part.metal>
0.0000

> <Gold.PLP.part.buried>
-3.8696

> <Gold.PLP.part.nonpolar>
-22.1191

> <Gold.PLP.part.repulsive>
0.3976

> <Gold.PLP.ligand.clash>
1.3334

> <Gold.PLP.ligand.torsion>
0.4412

> <Gold.PLP.Chemscore.Hbond>
1.5680

> <Gold.PLP.Chemscore.CHOScore>
0.0000

> <Gold.PLP.Chemscore.Metal>
0.0000

> <Gold.Chemscore.Hbonds>
donor molecule, donor type, donor heavy atom, donor atom, acceptor molecule, acceptor atom, score
      P1  H 23679 23730       L1     9  0.46

> <Gold.PLP.Chemscore.Internal.Correction>
   9.000000E+99

