#       Name:                CT1002167954
#       Creating user name   hitesit
#       Creation time:       Sun Apr 16 02:36:46 2023


#       File generated by GOLD software.
#

@<TRIPOS>MOLECULE
CT1002167954|ligand_prepared|mol2|1|dock4
    29    30     1
SMALL
NO_CHARGES


@<TRIPOS>ATOM
      1 C1         252.9394 390.1073 -102.0705 C.3            1 RES1               0.0000
      2 C2         251.5489 389.6991 -101.5427 C.ar           1 RES1               0.0000
      3 C3         253.8908 390.0243 -100.8804 C.2            1 RES1               0.0000
      4 C4         253.2690 389.1368 -103.1993 C.2            1 RES1               0.0000
      5 C5         252.9936 391.5427 -102.6435 C.3            1 RES1               0.0000
      6 C6         251.3961 388.5635 -100.7528 C.ar           1 RES1               0.0000
      7 C7         250.4121 390.4482 -101.8344 C.ar           1 RES1               0.0000
      8 N8         254.7675 388.9803 -100.8440 N.am           1 RES1               0.0000
      9 O9         253.8456 390.8403 -99.9681 O.2            1 RES1               0.0000
     10 N10        254.3198 388.2758 -103.0196 N.am           1 RES1               0.0000
     11 O11        252.6178 389.0986 -104.2360 O.2            1 RES1               0.0000
     12 C12        254.3978 392.0119 -102.9901 C.3            1 RES1               0.0000
     13 C13        250.1525 388.1919 -100.2696 C.ar           1 RES1               0.0000
     14 C14        249.1693 390.0747 -101.3504 C.ar           1 RES1               0.0000
     15 C15        255.0647 388.1326 -101.8808 C.2            1 RES1               0.0000
     16 C16        249.0384 388.9473 -100.5676 C.ar           1 RES1               0.0000
     17 O17        255.9587 387.2978 -101.7763 O.2            1 RES1               0.0000
     18 H18        252.3738 391.5856 -103.5475 H              1 RES1               0.0000
     19 H19        252.5622 392.2329 -101.9081 H              1 RES1               0.0000
     20 H20        252.2611 387.9553 -100.5099 H              1 RES1               0.0000
     21 H21        250.4911 391.3384 -102.4492 H              1 RES1               0.0000
     22 H22        255.2465 388.8145 -99.9646 H              1 RES1               0.0000
     23 H23        254.5700 387.6872 -103.8078 H              1 RES1               0.0000
     24 H24        254.3790 393.0245 -103.3877 H              1 RES1               0.0000
     25 H25        255.0352 392.0059 -102.1083 H              1 RES1               0.0000
     26 H26        254.8479 391.3624 -103.7380 H              1 RES1               0.0000
     27 H27        250.0546 387.3030 -99.6551 H              1 RES1               0.0000
     28 H28        248.2951 390.6718 -101.5879 H              1 RES1               0.0000
     29 H29        248.0643 388.6562 -100.1886 H              1 RES1               0.0000
@<TRIPOS>BOND
    1    1    2 1     
    2    1    3 1     
    3    1    4 1     
    4    1    5 1     
    5    2    6 ar    
    6    2    7 ar    
    7    3    8 1     
    8    3    9 2     
    9    4   10 1     
   10    4   11 2     
   11    5   12 1     
   12    5   18 1     
   13    5   19 1     
   14    6   13 ar    
   15    6   20 1     
   16    7   14 ar    
   17    7   21 1     
   18    8   15 1     
   19    8   22 1     
   20   10   15 1     
   21   10   23 1     
   22   12   24 1     
   23   12   25 1     
   24   12   26 1     
   25   13   16 ar    
   26   13   27 1     
   27   14   16 ar    
   28   14   28 1     
   29   15   17 2     
   30   16   29 1     
@<TRIPOS>SUBSTRUCTURE
      1 RES1           1
@<TRIPOS>SET
DONOR_HYDROGENS      STATIC     ATOMS    <user>   **** ""
2 22 23
ATOM$RED        STATIC     ATOMS    COLORGROUP SYSTEM
2 22 23
@<TRIPOS>COMMENT
> <Gold.Version>
2022.3.0

> <Gold.Id.Protein>
unknown|7ts3_clean|pdb

> <Gold.Protein.RotatedTorsions>
[ 1244 1203 1204 1205 ] final -108.31 input  115.91 | X-H torsion
[ 1316 1285 1286 1287 ] final  122.84 input  116.80 | X-H torsion
[ 1474 1426 1427 1428 ] final  159.88 input   84.58 | X-H torsion
[ 1484 1434 1433 1432 ] final   95.58 input   60.01 | X-H torsion
[ 1526 1505 1506 1507 ] final -113.39 input   90.12 | X-H torsion
[ 3997 3964 3965 3966 ] final  -28.61 input  106.83 | X-H torsion
[ 4216 4196 4195 4192 ] final -117.04 input   60.00 | X-H torsion
[ 6608 6572 6571 6569 ] final  138.24 input   60.00 | X-H torsion
[ 25713 25680 25681 25682 ] final  -25.36 input   66.88 | X-H torsion
[ 4080 4041 4042 4043 ] final  147.23 input  118.05 | X-H torsion
[ 4256 4235 4236 4237 ] final  -10.75 input  121.49 | X-H torsion
[ 23722 23672 23673 23674 ] final  -73.26 input   67.42 | X-H torsion
[ 23760 23747 23748 23749 ] final  -41.71 input  -89.77 | X-H torsion
[ 4260 4240 4239 4236 ] final -156.68 input   60.02 | X-H torsion
[ 1178 1150 1148 1145 ] final  -13.31 input   60.00 | X-H torsion
[ 25482 25446 25445 25443 ] final  167.17 input   60.01 | X-H torsion
[ 4422 4372 4371 4370 ] final  141.07 input   59.99 | X-H torsion
[ 23788 23775 23776 23777 ] final   95.44 input  -27.92 | X-H torsion
[ 27271 1147 1146 1145 ] final  148.66 input   -0.00 | X-H torsion
[ 27274 1206 1205 1204 ] final -136.34 input    0.00 | X-H torsion
[ 27278 1429 1428 1427 ] final  -32.89 input    0.00 | X-H torsion
[ 27284 3967 3966 3965 ] final -116.40 input    0.00 | X-H torsion
[ 27291 23675 23674 23673 ] final -173.86 input    0.00 | X-H torsion
[ 27294 25683 25682 25681 ] final -105.15 input    0.00 | X-H torsion
[ 27296 1350 1349 1348 ] final  -34.75 input    0.00 | X-H torsion
[ 27298 3703 3702 3701 ] final -156.03 input   -0.00 | X-H torsion
[ 27304 6798 6797 6796 ] final -124.54 input    0.00 | X-H torsion
[ 27307 23613 23612 23611 ] final  142.89 input   -0.00 | X-H torsion
[ 27311 23778 23777 23776 ] final -177.73 input   -0.00 | X-H torsion
[ 27313 4194 4193 4192 ] final   10.97 input    0.00 | X-H torsion

> <Gold.Protein.ActiveResidues>
 THR320  LEU321  HIS322  LEU323  LYS324  SER325  THR326  GLU365  PHE366  GLN369 
 TYR370  SER372  SER373  LYS375  TYR408  HIS412  ARG415  ASN416  TRP426  GLU670 
 CYS673  ARG674  GLY675  GLY676  TYR703  LEU705  THR706  PRO707 

> <Gold.Protein.RotatedAtoms>
  255.4946  380.4667 -103.1720 H   0  0  0  0  0  0  0  0  0  0  0  0  # atno 1178 bound_to 1150
  253.9032  380.9284 -101.6114 H   0  0  0  0  0  0  0  0  0  0  0  0  # atno 1244 bound_to 1203
  250.9067  379.9470 -101.4957 H   0  0  0  0  0  0  0  0  0  0  0  0  # atno 1316 bound_to 1285
  251.5315  382.9142  -97.5533 H   0  0  0  0  0  0  0  0  0  0  0  0  # atno 1474 bound_to 1426
  254.6994  383.2677  -99.0145 H   0  0  0  0  0  0  0  0  0  0  0  0  # atno 1484 bound_to 1434
  255.7042  384.0190 -100.0965 H   0  0  0  0  0  0  0  0  0  0  0  0  # atno 1485 bound_to 1434
  255.6685  384.5164  -98.5164 H   0  0  0  0  0  0  0  0  0  0  0  0  # atno 1486 bound_to 1434
  248.5950  384.5383  -97.5587 H   0  0  0  0  0  0  0  0  0  0  0  0  # atno 1526 bound_to 1505
  253.5026  396.1238  -96.9052 H   0  0  0  0  0  0  0  0  0  0  0  0  # atno 3997 bound_to 3964
  251.9400  396.7541  -98.9392 H   0  0  0  0  0  0  0  0  0  0  0  0  # atno 4080 bound_to 4041
  257.7068  392.4282  -99.9311 H   0  0  0  0  0  0  0  0  0  0  0  0  # atno 4216 bound_to 4196
  257.3554  396.1457 -101.3698 H   0  0  0  0  0  0  0  0  0  0  0  0  # atno 4256 bound_to 4235
  253.8398  397.3368 -103.5935 H   0  0  0  0  0  0  0  0  0  0  0  0  # atno 4260 bound_to 4240
  259.8777  393.1285 -105.8317 H   0  0  0  0  0  0  0  0  0  0  0  0  # atno 4422 bound_to 4372
  261.4453  392.5968 -105.7443 H   0  0  0  0  0  0  0  0  0  0  0  0  # atno 4423 bound_to 4372
  260.6399  393.0347 -104.3635 H   0  0  0  0  0  0  0  0  0  0  0  0  # atno 4424 bound_to 4372
  251.4914  394.6393 -101.7848 H   0  0  0  0  0  0  0  0  0  0  0  0  # atno 6608 bound_to 6572
  257.1539  385.2759 -108.0072 H   0  0  0  0  0  0  0  0  0  0  0  0  # atno 23722 bound_to 23672
  255.1040  383.2398 -107.3334 H   0  0  0  0  0  0  0  0  0  0  0  0  # atno 23760 bound_to 23747
  253.4079  382.2736 -105.6851 H   0  0  0  0  0  0  0  0  0  0  0  0  # atno 23788 bound_to 23775
  249.2673  380.1607 -104.6053 H   0  0  0  0  0  0  0  0  0  0  0  0  # atno 25482 bound_to 25446
  245.2702  389.0825 -100.4822 H   0  0  0  0  0  0  0  0  0  0  0  0  # atno 25713 bound_to 25680
  253.3819  381.6038  -99.6235 LP  0  0  0  0  0  0  0  0  0  0  0  0  # atno 27271 bound_to 1147
  253.6078  379.9432  -99.1862 LP  0  0  0  0  0  0  0  0  0  0  0  0  # atno 27272 bound_to 1147
  252.6611  380.2863 -102.6641 LP  0  0  0  0  0  0  0  0  0  0  0  0  # atno 27273 bound_to 1203
  250.2200  382.6361  -99.2745 LP  0  0  0  0  0  0  0  0  0  0  0  0  # atno 27274 bound_to 1206
  250.3509  383.7172 -100.6214 LP  0  0  0  0  0  0  0  0  0  0  0  0  # atno 27275 bound_to 1206
  250.8911  381.5597 -100.8239 LP  0  0  0  0  0  0  0  0  0  0  0  0  # atno 27276 bound_to 1285
  249.8580  382.4759  -97.2866 LP  0  0  0  0  0  0  0  0  0  0  0  0  # atno 27277 bound_to 1426
  248.8921  386.7485  -96.7874 LP  0  0  0  0  0  0  0  0  0  0  0  0  # atno 27278 bound_to 1429
  247.6113  386.2553  -97.8440 LP  0  0  0  0  0  0  0  0  0  0  0  0  # atno 27279 bound_to 1429
  248.2912  383.0073  -96.7722 LP  0  0  0  0  0  0  0  0  0  0  0  0  # atno 27280 bound_to 1505
  252.4729  394.8147  -96.3923 LP  0  0  0  0  0  0  0  0  0  0  0  0  # atno 27283 bound_to 3964
  255.0511  395.8578 -100.5631 LP  0  0  0  0  0  0  0  0  0  0  0  0  # atno 27284 bound_to 3967
  253.9782  394.5925 -101.0611 LP  0  0  0  0  0  0  0  0  0  0  0  0  # atno 27285 bound_to 3967
  258.3770  392.6775  -98.4695 LP  0  0  0  0  0  0  0  0  0  0  0  0  # atno 27286 bound_to 4196
  258.9456  393.4720  -99.7780 LP  0  0  0  0  0  0  0  0  0  0  0  0  # atno 27287 bound_to 4196
  252.4315  394.3712 -103.0858 LP  0  0  0  0  0  0  0  0  0  0  0  0  # atno 27288 bound_to 6572
  250.8933  393.8236 -103.0597 LP  0  0  0  0  0  0  0  0  0  0  0  0  # atno 27289 bound_to 6572
  254.8516  383.9278 -104.1254 LP  0  0  0  0  0  0  0  0  0  0  0  0  # atno 27291 bound_to 23675
  254.5871  385.5984 -104.4982 LP  0  0  0  0  0  0  0  0  0  0  0  0  # atno 27292 bound_to 23675
  244.0904  388.7041  -99.2581 LP  0  0  0  0  0  0  0  0  0  0  0  0  # atno 27293 bound_to 25680
  246.8123  391.8967  -99.4737 LP  0  0  0  0  0  0  0  0  0  0  0  0  # atno 27294 bound_to 25683
  246.7539  390.6915 -100.7163 LP  0  0  0  0  0  0  0  0  0  0  0  0  # atno 27295 bound_to 25683
  249.9957  381.8211  -94.5939 LP  0  0  0  0  0  0  0  0  0  0  0  0  # atno 27296 bound_to 1350
  250.6702  383.4031  -94.8002 LP  0  0  0  0  0  0  0  0  0  0  0  0  # atno 27297 bound_to 1350
  250.7486  395.0725  -96.2393 LP  0  0  0  0  0  0  0  0  0  0  0  0  # atno 27298 bound_to 3703
  250.9686  393.5843  -95.3810 LP  0  0  0  0  0  0  0  0  0  0  0  0  # atno 27299 bound_to 3703
  253.5464  396.1141  -99.1789 LP  0  0  0  0  0  0  0  0  0  0  0  0  # atno 27302 bound_to 4041
  255.9799  395.0743 -101.2460 LP  0  0  0  0  0  0  0  0  0  0  0  0  # atno 27303 bound_to 4235
  244.3817  391.2592 -106.7942 LP  0  0  0  0  0  0  0  0  0  0  0  0  # atno 27304 bound_to 6798
  245.6848  391.2509 -105.6532 LP  0  0  0  0  0  0  0  0  0  0  0  0  # atno 27305 bound_to 6798
  257.4084  387.2018 -106.8468 LP  0  0  0  0  0  0  0  0  0  0  0  0  # atno 27307 bound_to 23613
  258.9199  386.5328 -107.3642 LP  0  0  0  0  0  0  0  0  0  0  0  0  # atno 27308 bound_to 23613
  255.6962  385.2849 -108.9757 LP  0  0  0  0  0  0  0  0  0  0  0  0  # atno 27309 bound_to 23672
  255.9870  384.0663 -106.0741 LP  0  0  0  0  0  0  0  0  0  0  0  0  # atno 27310 bound_to 23747
  250.5566  383.9066 -108.1571 LP  0  0  0  0  0  0  0  0  0  0  0  0  # atno 27311 bound_to 23778
  252.1713  383.6106 -107.6047 LP  0  0  0  0  0  0  0  0  0  0  0  0  # atno 27312 bound_to 23778
  259.6756  394.9583 -101.3150 LP  0  0  0  0  0  0  0  0  0  0  0  0  # atno 27313 bound_to 4194
  258.8792  395.3778 -102.7947 LP  0  0  0  0  0  0  0  0  0  0  0  0  # atno 27314 bound_to 4194
  255.1291  397.5841 -104.5555 LP  0  0  0  0  0  0  0  0  0  0  0  0  # atno 27315 bound_to 4240
  255.2988  397.6239 -102.9319 LP  0  0  0  0  0  0  0  0  0  0  0  0  # atno 27316 bound_to 4240

> <Gold.Score>
     Fitness  S(hb_ext) S(vdw_ext)  S(hb_int)    S(int)      intcor
     37.22       4.61      23.78       0.00      -0.09      -0.76

> <Gold.Goldscore.Fitness>
37.2162

> <Gold.Goldscore.Internal.Vdw>
-0.3776

> <Gold.Goldscore.Internal.Torsion>
-0.4666

> <Gold.Goldscore.External.Vdw>
23.7763

> <Gold.Goldscore.Internal.HBond>
0.0000

> <Gold.Goldscore.External.HBond>
4.6095

> <Gold.Goldscore.Internal.Correction>
-0.7585

> <Gold.Goldscore.Hbonds>
donor molecule, donor type, donor heavy atom, donor atom, acceptor molecule, acceptor atom, score
      P1  H 23679 23730       L1    11  0.77

> <Gold.Goldscore.Internal.Vdw.Weighted>
-0.3776

> <Gold.Goldscore.Internal.Torsion.Weighted>
-0.4666

> <Gold.Goldscore.External.Vdw.Weighted>
32.6924

> <Gold.Goldscore.Internal.HBond.Weighted>
0.0000

> <Gold.Goldscore.External.HBond.Weighted>
4.6095

> <Gold.Goldscore.Internal.Correction.Weighted>
-0.7585

> <Gold.Rescore>
     Score     S(PLP)   S(hbond)     S(cho)   S(metal)  DE(clash)   DE(tors)     intcor
     34.78     -33.47       1.00       0.00       0.00       0.00       0.84       ----

> <Gold.PLP.Fitness>
34.7831

> <Gold.PLP.PLP>
-33.4701

> <Gold.PLP.part.hbond>
-1.0000

> <Gold.PLP.part.metal>
0.0000

> <Gold.PLP.part.buried>
-2.7413

> <Gold.PLP.part.nonpolar>
-29.5762

> <Gold.PLP.part.repulsive>
0.0306

> <Gold.PLP.ligand.clash>
0.0000

> <Gold.PLP.ligand.torsion>
0.8435

> <Gold.PLP.Chemscore.Hbond>
1.0000

> <Gold.PLP.Chemscore.CHOScore>
0.0000

> <Gold.PLP.Chemscore.Metal>
0.0000

> <Gold.Chemscore.Hbonds>
donor molecule, donor type, donor heavy atom, donor atom, acceptor molecule, acceptor atom, score
      P1  H 23679 23730       L1    11  0.34

> <Gold.PLP.Chemscore.Internal.Correction>
   9.000000E+99

