#       Name:                GA Fitting Points
#       Creating user name   hitesit
#       Creation time:       Sun Apr 16 02:26:44 2023


#       Fitting Points Used by GA Software.
#

@<TRIPOS>MOLECULE
GA Fitting Points
  3382    0    0
SMALL
NO_CHARGES


@<TRIPOS>ATOM
      1 ****       246.5000 357.5000 -74.2500 Du        
      2 ****       246.5000 357.5000 -74.0000 Du        
      3 ****       246.5000 357.7500 -74.2500 Du        
      4 ****       246.5000 357.7500 -74.0000 Du        
      5 ****       246.5000 358.0000 -74.0000 Du        
      6 ****       246.5000 358.0000 -73.7500 Du        
      7 ****       246.5000 362.2500 -66.5000 Du        
      8 ****       246.5000 362.2500 -66.2500 Du        
      9 ****       246.5000 362.2500 -66.0000 Du        
     10 ****       246.5000 362.2500 -65.7500 Du        
     11 ****       246.7500 357.5000 -74.5000 Du        
     12 ****       246.7500 357.5000 -74.2500 Du        
     13 ****       246.7500 357.5000 -74.0000 Du        
     14 ****       246.7500 357.5000 -73.7500 Du        
     15 ****       246.7500 357.7500 -74.5000 Du        
     16 ****       246.7500 357.7500 -74.2500 Du        
     17 ****       246.7500 357.7500 -74.0000 Du        
     18 ****       246.7500 357.7500 -73.7500 Du        
     19 ****       246.7500 358.0000 -74.5000 Du        
     20 ****       246.7500 358.0000 -74.2500 Du        
     21 ****       246.7500 358.0000 -74.0000 Du        
     22 ****       246.7500 358.0000 -73.7500 Du        
     23 ****       246.7500 358.0000 -73.5000 Du        
     24 ****       246.7500 358.2500 -74.2500 Du        
     25 ****       246.7500 358.2500 -74.0000 Du        
     26 ****       246.7500 358.2500 -73.7500 Du        
     27 ****       246.7500 358.2500 -73.5000 Du        
     28 ****       246.7500 362.0000 -66.5000 Du        
     29 ****       246.7500 362.2500 -67.0000 Du        
     30 ****       246.7500 362.2500 -66.7500 Du        
     31 ****       246.7500 362.2500 -66.5000 Du        
     32 ****       246.7500 362.2500 -66.2500 Du        
     33 ****       246.7500 362.2500 -66.0000 Du        
     34 ****       246.7500 362.2500 -65.7500 Du        
     35 ****       246.7500 362.2500 -65.5000 Du        
     36 ****       246.7500 362.5000 -66.5000 Du        
     37 ****       246.7500 362.5000 -66.2500 Du        
     38 ****       246.7500 362.5000 -66.0000 Du        
     39 ****       246.7500 362.5000 -65.7500 Du        
     40 ****       246.7500 362.5000 -65.5000 Du        
     41 ****       246.7500 362.5000 -65.2500 Du        
     42 ****       246.7500 362.7500 -66.5000 Du        
     43 ****       246.7500 362.7500 -66.2500 Du        
     44 ****       246.7500 362.7500 -66.0000 Du        
     45 ****       246.7500 362.7500 -65.7500 Du        
     46 ****       246.7500 362.7500 -65.2500 Du        
     47 ****       246.7500 362.7500 -65.0000 Du        
     48 ****       247.0000 357.5000 -74.5000 Du        
     49 ****       247.0000 357.5000 -74.2500 Du        
     50 ****       247.0000 357.5000 -74.0000 Du        
     51 ****       247.0000 357.5000 -73.7500 Du        
     52 ****       247.0000 357.7500 -75.0000 Du        
     53 ****       247.0000 357.7500 -74.7500 Du        
     54 ****       247.0000 357.7500 -74.5000 Du        
     55 ****       247.0000 357.7500 -74.2500 Du        
     56 ****       247.0000 357.7500 -74.0000 Du        
     57 ****       247.0000 357.7500 -73.7500 Du        
     58 ****       247.0000 357.7500 -73.5000 Du        
     59 ****       247.0000 358.0000 -75.0000 Du        
     60 ****       247.0000 358.0000 -74.7500 Du        
     61 ****       247.0000 358.0000 -74.5000 Du        
     62 ****       247.0000 358.0000 -74.2500 Du        
     63 ****       247.0000 358.0000 -74.0000 Du        
     64 ****       247.0000 358.0000 -73.7500 Du        
     65 ****       247.0000 358.0000 -73.5000 Du        
     66 ****       247.0000 358.2500 -74.5000 Du        
     67 ****       247.0000 358.2500 -74.2500 Du        
     68 ****       247.0000 358.2500 -74.0000 Du        
     69 ****       247.0000 358.2500 -73.7500 Du        
     70 ****       247.0000 358.2500 -73.5000 Du        
     71 ****       247.0000 358.5000 -74.2500 Du        
     72 ****       247.0000 358.5000 -74.0000 Du        
     73 ****       247.0000 358.5000 -73.7500 Du        
     74 ****       247.0000 358.7500 -74.2500 Du        
     75 ****       247.0000 358.7500 -74.0000 Du        
     76 ****       247.0000 358.7500 -73.7500 Du        
     77 ****       247.0000 359.0000 -74.0000 Du        
     78 ****       247.0000 362.0000 -67.0000 Du        
     79 ****       247.0000 362.0000 -66.7500 Du        
     80 ****       247.0000 362.0000 -66.5000 Du        
     81 ****       247.0000 362.0000 -66.2500 Du        
     82 ****       247.0000 362.0000 -66.0000 Du        
     83 ****       247.0000 362.2500 -67.2500 Du        
     84 ****       247.0000 362.2500 -67.0000 Du        
     85 ****       247.0000 362.2500 -66.7500 Du        
     86 ****       247.0000 362.2500 -66.5000 Du        
     87 ****       247.0000 362.2500 -66.2500 Du        
     88 ****       247.0000 362.2500 -66.0000 Du        
     89 ****       247.0000 362.2500 -65.7500 Du        
     90 ****       247.0000 362.2500 -65.5000 Du        
     91 ****       247.0000 362.2500 -65.2500 Du        
     92 ****       247.0000 362.5000 -67.0000 Du        
     93 ****       247.0000 362.5000 -66.7500 Du        
     94 ****       247.0000 362.5000 -66.5000 Du        
     95 ****       247.0000 362.5000 -66.2500 Du        
     96 ****       247.0000 362.5000 -66.0000 Du        
     97 ****       247.0000 362.5000 -65.7500 Du        
     98 ****       247.0000 362.5000 -65.5000 Du        
     99 ****       247.0000 362.5000 -65.2500 Du        
    100 ****       247.0000 362.5000 -65.0000 Du        
    101 ****       247.0000 362.7500 -67.0000 Du        
    102 ****       247.0000 362.7500 -66.7500 Du        
    103 ****       247.0000 362.7500 -66.5000 Du        
    104 ****       247.0000 362.7500 -66.2500 Du        
    105 ****       247.0000 362.7500 -66.0000 Du        
    106 ****       247.0000 362.7500 -65.7500 Du        
    107 ****       247.0000 362.7500 -65.5000 Du        
    108 ****       247.0000 362.7500 -65.2500 Du        
    109 ****       247.0000 362.7500 -65.0000 Du        
    110 ****       247.0000 362.7500 -64.7500 Du        
    111 ****       247.0000 362.7500 -64.5000 Du        
    112 ****       247.0000 362.7500 -64.2500 Du        
    113 ****       247.0000 363.0000 -66.7500 Du        
    114 ****       247.0000 363.0000 -66.5000 Du        
    115 ****       247.0000 363.0000 -66.2500 Du        
    116 ****       247.0000 363.0000 -66.0000 Du        
    117 ****       247.0000 363.0000 -65.7500 Du        
    118 ****       247.0000 363.0000 -65.5000 Du        
    119 ****       247.0000 363.0000 -65.2500 Du        
    120 ****       247.0000 363.0000 -65.0000 Du        
    121 ****       247.0000 363.0000 -64.7500 Du        
    122 ****       247.0000 363.0000 -64.5000 Du        
    123 ****       247.0000 363.0000 -64.2500 Du        
    124 ****       247.0000 363.0000 -64.0000 Du        
    125 ****       247.0000 363.0000 -63.5000 Du        
    126 ****       247.0000 363.2500 -66.2500 Du        
    127 ****       247.0000 363.2500 -66.0000 Du        
    128 ****       247.0000 363.2500 -64.0000 Du        
    129 ****       247.0000 363.2500 -63.5000 Du        
    130 ****       247.0000 363.2500 -63.2500 Du        
    131 ****       247.0000 363.2500 -63.0000 Du        
    132 ****       247.0000 363.2500 -62.7500 Du        
    133 ****       247.0000 363.2500 -62.0000 Du        
    134 ****       247.2500 357.2500 -76.0000 Du        
    135 ****       247.2500 357.5000 -75.2500 Du        
    136 ****       247.2500 357.5000 -74.5000 Du        
    137 ****       247.2500 357.5000 -74.2500 Du        
    138 ****       247.2500 357.5000 -74.0000 Du        
    139 ****       247.2500 357.5000 -73.7500 Du        
    140 ****       247.2500 357.7500 -75.5000 Du        
    141 ****       247.2500 357.7500 -75.2500 Du        
    142 ****       247.2500 357.7500 -75.0000 Du        
    143 ****       247.2500 357.7500 -74.7500 Du        
    144 ****       247.2500 357.7500 -74.5000 Du        
    145 ****       247.2500 357.7500 -74.2500 Du        
    146 ****       247.2500 357.7500 -74.0000 Du        
    147 ****       247.2500 357.7500 -73.7500 Du        
    148 ****       247.2500 357.7500 -73.5000 Du        
    149 ****       247.2500 358.0000 -75.5000 Du        
    150 ****       247.2500 358.0000 -75.2500 Du        
    151 ****       247.2500 358.0000 -75.0000 Du        
    152 ****       247.2500 358.0000 -74.7500 Du        
    153 ****       247.2500 358.0000 -74.5000 Du        
    154 ****       247.2500 358.0000 -74.2500 Du        
    155 ****       247.2500 358.0000 -74.0000 Du        
    156 ****       247.2500 358.0000 -73.7500 Du        
    157 ****       247.2500 358.0000 -73.5000 Du        
    158 ****       247.2500 358.2500 -75.2500 Du        
    159 ****       247.2500 358.2500 -75.0000 Du        
    160 ****       247.2500 358.2500 -74.7500 Du        
    161 ****       247.2500 358.2500 -74.5000 Du        
    162 ****       247.2500 358.2500 -74.2500 Du        
    163 ****       247.2500 358.2500 -74.0000 Du        
    164 ****       247.2500 358.2500 -73.7500 Du        
    165 ****       247.2500 358.2500 -73.5000 Du        
    166 ****       247.2500 358.5000 -75.0000 Du        
    167 ****       247.2500 358.5000 -74.7500 Du        
    168 ****       247.2500 358.5000 -74.5000 Du        
    169 ****       247.2500 358.5000 -74.2500 Du        
    170 ****       247.2500 358.5000 -74.0000 Du        
    171 ****       247.2500 358.5000 -73.7500 Du        
    172 ****       247.2500 358.7500 -74.7500 Du        
    173 ****       247.2500 358.7500 -74.2500 Du        
    174 ****       247.2500 358.7500 -74.0000 Du        
    175 ****       247.2500 358.7500 -73.7500 Du        
    176 ****       247.2500 359.0000 -74.7500 Du        
    177 ****       247.2500 359.0000 -74.2500 Du        
    178 ****       247.2500 359.0000 -74.0000 Du        
    179 ****       247.2500 362.0000 -67.0000 Du        
    180 ****       247.2500 362.0000 -66.7500 Du        
    181 ****       247.2500 362.0000 -66.5000 Du        
    182 ****       247.2500 362.0000 -66.2500 Du        
    183 ****       247.2500 362.0000 -66.0000 Du        
    184 ****       247.2500 362.0000 -65.7500 Du        
    185 ****       247.2500 362.2500 -67.2500 Du        
    186 ****       247.2500 362.2500 -67.0000 Du        
    187 ****       247.2500 362.2500 -66.7500 Du        
    188 ****       247.2500 362.2500 -66.5000 Du        
    189 ****       247.2500 362.2500 -66.2500 Du        
    190 ****       247.2500 362.2500 -66.0000 Du        
    191 ****       247.2500 362.2500 -65.7500 Du        
    192 ****       247.2500 362.2500 -65.5000 Du        
    193 ****       247.2500 362.2500 -65.2500 Du        
    194 ****       247.2500 362.2500 -65.0000 Du        
    195 ****       247.2500 362.5000 -67.2500 Du        
    196 ****       247.2500 362.5000 -67.0000 Du        
    197 ****       247.2500 362.5000 -66.7500 Du        
    198 ****       247.2500 362.5000 -66.5000 Du        
    199 ****       247.2500 362.5000 -66.2500 Du        
    200 ****       247.2500 362.5000 -66.0000 Du        
    201 ****       247.2500 362.5000 -65.7500 Du        
    202 ****       247.2500 362.5000 -65.5000 Du        
    203 ****       247.2500 362.5000 -65.2500 Du        
    204 ****       247.2500 362.5000 -65.0000 Du        
    205 ****       247.2500 362.5000 -64.7500 Du        
    206 ****       247.2500 362.5000 -64.5000 Du        
    207 ****       247.2500 362.7500 -67.2500 Du        
    208 ****       247.2500 362.7500 -67.0000 Du        
    209 ****       247.2500 362.7500 -66.7500 Du        
    210 ****       247.2500 362.7500 -66.5000 Du        
    211 ****       247.2500 362.7500 -66.2500 Du        
    212 ****       247.2500 362.7500 -66.0000 Du        
    213 ****       247.2500 362.7500 -65.7500 Du        
    214 ****       247.2500 362.7500 -65.5000 Du        
    215 ****       247.2500 362.7500 -65.2500 Du        
    216 ****       247.2500 362.7500 -65.0000 Du        
    217 ****       247.2500 362.7500 -64.7500 Du        
    218 ****       247.2500 362.7500 -64.5000 Du        
    219 ****       247.2500 362.7500 -64.2500 Du        
    220 ****       247.2500 362.7500 -64.0000 Du        
    221 ****       247.2500 362.7500 -63.7500 Du        
    222 ****       247.2500 363.0000 -67.2500 Du        
    223 ****       247.2500 363.0000 -67.0000 Du        
    224 ****       247.2500 363.0000 -66.7500 Du        
    225 ****       247.2500 363.0000 -66.5000 Du        
    226 ****       247.2500 363.0000 -66.2500 Du        
    227 ****       247.2500 363.0000 -66.0000 Du        
    228 ****       247.2500 363.0000 -65.7500 Du        
    229 ****       247.2500 363.0000 -65.5000 Du        
    230 ****       247.2500 363.0000 -65.2500 Du        
    231 ****       247.2500 363.0000 -65.0000 Du        
    232 ****       247.2500 363.0000 -64.7500 Du        
    233 ****       247.2500 363.0000 -64.5000 Du        
    234 ****       247.2500 363.0000 -64.2500 Du        
    235 ****       247.2500 363.0000 -64.0000 Du        
    236 ****       247.2500 363.0000 -63.7500 Du        
    237 ****       247.2500 363.0000 -63.5000 Du        
    238 ****       247.2500 363.0000 -63.2500 Du        
    239 ****       247.2500 363.0000 -63.0000 Du        
    240 ****       247.2500 363.0000 -62.7500 Du        
    241 ****       247.2500 363.0000 -62.0000 Du        
    242 ****       247.2500 363.2500 -66.7500 Du        
    243 ****       247.2500 363.2500 -66.5000 Du        
    244 ****       247.2500 363.2500 -66.2500 Du        
    245 ****       247.2500 363.2500 -66.0000 Du        
    246 ****       247.2500 363.2500 -65.7500 Du        
    247 ****       247.2500 363.2500 -65.5000 Du        
    248 ****       247.2500 363.2500 -65.2500 Du        
    249 ****       247.2500 363.2500 -65.0000 Du        
    250 ****       247.2500 363.2500 -64.7500 Du        
    251 ****       247.2500 363.2500 -64.5000 Du        
    252 ****       247.2500 363.2500 -64.2500 Du        
    253 ****       247.2500 363.2500 -64.0000 Du        
    254 ****       247.2500 363.2500 -63.7500 Du        
    255 ****       247.2500 363.2500 -63.5000 Du        
    256 ****       247.2500 363.2500 -63.2500 Du        
    257 ****       247.2500 363.2500 -63.0000 Du        
    258 ****       247.2500 363.2500 -62.7500 Du        
    259 ****       247.2500 363.2500 -62.5000 Du        
    260 ****       247.2500 363.2500 -62.2500 Du        
    261 ****       247.2500 363.2500 -62.0000 Du        
    262 ****       247.2500 363.2500 -61.7500 Du        
    263 ****       247.2500 363.5000 -64.0000 Du        
    264 ****       247.2500 363.5000 -63.7500 Du        
    265 ****       247.2500 363.5000 -62.7500 Du        
    266 ****       247.2500 363.5000 -61.7500 Du        
    267 ****       247.2500 363.7500 -63.7500 Du        
    268 ****       247.5000 357.2500 -76.0000 Du        
    269 ****       247.5000 357.2500 -75.7500 Du        
    270 ****       247.5000 357.2500 -75.5000 Du        
    271 ****       247.5000 357.2500 -75.2500 Du        
    272 ****       247.5000 357.5000 -76.0000 Du        
    273 ****       247.5000 357.5000 -75.7500 Du        
    274 ****       247.5000 357.5000 -75.5000 Du        
    275 ****       247.5000 357.5000 -75.2500 Du        
    276 ****       247.5000 357.5000 -75.0000 Du        
    277 ****       247.5000 357.5000 -74.7500 Du        
    278 ****       247.5000 357.5000 -74.5000 Du        
    279 ****       247.5000 357.5000 -74.2500 Du        
    280 ****       247.5000 357.5000 -74.0000 Du        
    281 ****       247.5000 357.5000 -73.7500 Du        
    282 ****       247.5000 357.7500 -76.0000 Du        
    283 ****       247.5000 357.7500 -75.7500 Du        
    284 ****       247.5000 357.7500 -75.5000 Du        
    285 ****       247.5000 357.7500 -75.2500 Du        
    286 ****       247.5000 357.7500 -75.0000 Du        
    287 ****       247.5000 357.7500 -74.7500 Du        
    288 ****       247.5000 357.7500 -74.5000 Du        
    289 ****       247.5000 357.7500 -74.2500 Du        
    290 ****       247.5000 357.7500 -74.0000 Du        
    291 ****       247.5000 357.7500 -73.7500 Du        
    292 ****       247.5000 357.7500 -73.5000 Du        
    293 ****       247.5000 358.0000 -76.0000 Du        
    294 ****       247.5000 358.0000 -75.7500 Du        
    295 ****       247.5000 358.0000 -75.5000 Du        
    296 ****       247.5000 358.0000 -75.2500 Du        
    297 ****       247.5000 358.0000 -75.0000 Du        
    298 ****       247.5000 358.0000 -74.7500 Du        
    299 ****       247.5000 358.0000 -74.5000 Du        
    300 ****       247.5000 358.0000 -74.2500 Du        
    301 ****       247.5000 358.0000 -74.0000 Du        
    302 ****       247.5000 358.0000 -73.7500 Du        
    303 ****       247.5000 358.0000 -73.5000 Du        
    304 ****       247.5000 358.2500 -75.7500 Du        
    305 ****       247.5000 358.2500 -75.5000 Du        
    306 ****       247.5000 358.2500 -75.2500 Du        
    307 ****       247.5000 358.2500 -75.0000 Du        
    308 ****       247.5000 358.2500 -74.7500 Du        
    309 ****       247.5000 358.2500 -74.5000 Du        
    310 ****       247.5000 358.2500 -74.2500 Du        
    311 ****       247.5000 358.2500 -74.0000 Du        
    312 ****       247.5000 358.2500 -73.7500 Du        
    313 ****       247.5000 358.2500 -73.5000 Du        
    314 ****       247.5000 358.5000 -75.2500 Du        
    315 ****       247.5000 358.5000 -75.0000 Du        
    316 ****       247.5000 358.5000 -74.7500 Du        
    317 ****       247.5000 358.5000 -74.5000 Du        
    318 ****       247.5000 358.5000 -74.2500 Du        
    319 ****       247.5000 358.5000 -74.0000 Du        
    320 ****       247.5000 358.5000 -73.7500 Du        
    321 ****       247.5000 358.7500 -75.5000 Du        
    322 ****       247.5000 358.7500 -75.2500 Du        
    323 ****       247.5000 358.7500 -75.0000 Du        
    324 ****       247.5000 358.7500 -74.7500 Du        
    325 ****       247.5000 358.7500 -74.5000 Du        
    326 ****       247.5000 358.7500 -74.2500 Du        
    327 ****       247.5000 358.7500 -74.0000 Du        
    328 ****       247.5000 359.0000 -75.2500 Du        
    329 ****       247.5000 359.0000 -75.0000 Du        
    330 ****       247.5000 359.0000 -74.7500 Du        
    331 ****       247.5000 359.0000 -74.5000 Du        
    332 ****       247.5000 359.0000 -74.2500 Du        
    333 ****       247.5000 359.0000 -74.0000 Du        
    334 ****       247.5000 359.2500 -74.7500 Du        
    335 ****       247.5000 359.2500 -74.5000 Du        
    336 ****       247.5000 359.2500 -74.2500 Du        
    337 ****       247.5000 359.5000 -74.5000 Du        
    338 ****       247.5000 359.5000 -74.2500 Du        
    339 ****       247.5000 362.0000 -67.0000 Du        
    340 ****       247.5000 362.0000 -66.7500 Du        
    341 ****       247.5000 362.0000 -66.5000 Du        
    342 ****       247.5000 362.0000 -66.2500 Du        
    343 ****       247.5000 362.0000 -66.0000 Du        
    344 ****       247.5000 362.0000 -65.7500 Du        
    345 ****       247.5000 362.0000 -65.5000 Du        
    346 ****       247.5000 362.0000 -65.2500 Du        
    347 ****       247.5000 362.2500 -67.2500 Du        
    348 ****       247.5000 362.2500 -67.0000 Du        
    349 ****       247.5000 362.2500 -66.7500 Du        
    350 ****       247.5000 362.2500 -66.5000 Du        
    351 ****       247.5000 362.2500 -66.2500 Du        
    352 ****       247.5000 362.2500 -66.0000 Du        
    353 ****       247.5000 362.2500 -65.7500 Du        
    354 ****       247.5000 362.2500 -65.5000 Du        
    355 ****       247.5000 362.2500 -65.2500 Du        
    356 ****       247.5000 362.2500 -65.0000 Du        
    357 ****       247.5000 362.2500 -64.7500 Du        
    358 ****       247.5000 362.2500 -64.5000 Du        
    359 ****       247.5000 362.5000 -67.2500 Du        
    360 ****       247.5000 362.5000 -67.0000 Du        
    361 ****       247.5000 362.5000 -66.7500 Du        
    362 ****       247.5000 362.5000 -66.5000 Du        
    363 ****       247.5000 362.5000 -66.2500 Du        
    364 ****       247.5000 362.5000 -66.0000 Du        
    365 ****       247.5000 362.5000 -65.7500 Du        
    366 ****       247.5000 362.5000 -65.5000 Du        
    367 ****       247.5000 362.5000 -65.2500 Du        
    368 ****       247.5000 362.5000 -65.0000 Du        
    369 ****       247.5000 362.5000 -64.7500 Du        
    370 ****       247.5000 362.5000 -64.5000 Du        
    371 ****       247.5000 362.5000 -64.2500 Du        
    372 ****       247.5000 362.5000 -64.0000 Du        
    373 ****       247.5000 362.5000 -63.7500 Du        
    374 ****       247.5000 362.5000 -63.5000 Du        
    375 ****       247.5000 362.7500 -67.5000 Du        
    376 ****       247.5000 362.7500 -67.2500 Du        
    377 ****       247.5000 362.7500 -67.0000 Du        
    378 ****       247.5000 362.7500 -66.7500 Du        
    379 ****       247.5000 362.7500 -66.5000 Du        
    380 ****       247.5000 362.7500 -66.2500 Du        
    381 ****       247.5000 362.7500 -66.0000 Du        
    382 ****       247.5000 362.7500 -65.7500 Du        
    383 ****       247.5000 362.7500 -65.5000 Du        
    384 ****       247.5000 362.7500 -65.2500 Du        
    385 ****       247.5000 362.7500 -65.0000 Du        
    386 ****       247.5000 362.7500 -64.7500 Du        
    387 ****       247.5000 362.7500 -64.5000 Du        
    388 ****       247.5000 362.7500 -64.2500 Du        
    389 ****       247.5000 362.7500 -64.0000 Du        
    390 ****       247.5000 362.7500 -63.7500 Du        
    391 ****       247.5000 362.7500 -63.5000 Du        
    392 ****       247.5000 362.7500 -63.2500 Du        
    393 ****       247.5000 362.7500 -63.0000 Du        
    394 ****       247.5000 362.7500 -62.7500 Du        
    395 ****       247.5000 362.7500 -62.5000 Du        
    396 ****       247.5000 362.7500 -62.2500 Du        
    397 ****       247.5000 362.7500 -61.7500 Du        
    398 ****       247.5000 363.0000 -67.5000 Du        
    399 ****       247.5000 363.0000 -67.2500 Du        
    400 ****       247.5000 363.0000 -67.0000 Du        
    401 ****       247.5000 363.0000 -66.7500 Du        
    402 ****       247.5000 363.0000 -66.5000 Du        
    403 ****       247.5000 363.0000 -66.2500 Du        
    404 ****       247.5000 363.0000 -66.0000 Du        
    405 ****       247.5000 363.0000 -65.7500 Du        
    406 ****       247.5000 363.0000 -65.5000 Du        
    407 ****       247.5000 363.0000 -65.2500 Du        
    408 ****       247.5000 363.0000 -65.0000 Du        
    409 ****       247.5000 363.0000 -64.7500 Du        
    410 ****       247.5000 363.0000 -64.5000 Du        
    411 ****       247.5000 363.0000 -64.2500 Du        
    412 ****       247.5000 363.0000 -64.0000 Du        
    413 ****       247.5000 363.0000 -63.7500 Du        
    414 ****       247.5000 363.0000 -63.5000 Du        
    415 ****       247.5000 363.0000 -63.2500 Du        
    416 ****       247.5000 363.0000 -63.0000 Du        
    417 ****       247.5000 363.0000 -62.7500 Du        
    418 ****       247.5000 363.0000 -62.5000 Du        
    419 ****       247.5000 363.0000 -62.2500 Du        
    420 ****       247.5000 363.0000 -62.0000 Du        
    421 ****       247.5000 363.0000 -61.7500 Du        
    422 ****       247.5000 363.2500 -67.5000 Du        
    423 ****       247.5000 363.2500 -67.2500 Du        
    424 ****       247.5000 363.2500 -67.0000 Du        
    425 ****       247.5000 363.2500 -66.7500 Du        
    426 ****       247.5000 363.2500 -66.5000 Du        
    427 ****       247.5000 363.2500 -66.2500 Du        
    428 ****       247.5000 363.2500 -66.0000 Du        
    429 ****       247.5000 363.2500 -65.7500 Du        
    430 ****       247.5000 363.2500 -65.5000 Du        
    431 ****       247.5000 363.2500 -65.2500 Du        
    432 ****       247.5000 363.2500 -65.0000 Du        
    433 ****       247.5000 363.2500 -64.7500 Du        
    434 ****       247.5000 363.2500 -64.5000 Du        
    435 ****       247.5000 363.2500 -64.2500 Du        
    436 ****       247.5000 363.2500 -64.0000 Du        
    437 ****       247.5000 363.2500 -63.7500 Du        
    438 ****       247.5000 363.2500 -63.5000 Du        
    439 ****       247.5000 363.2500 -63.2500 Du        
    440 ****       247.5000 363.2500 -63.0000 Du        
    441 ****       247.5000 363.2500 -62.7500 Du        
    442 ****       247.5000 363.2500 -62.5000 Du        
    443 ****       247.5000 363.2500 -62.2500 Du        
    444 ****       247.5000 363.2500 -62.0000 Du        
    445 ****       247.5000 363.2500 -61.7500 Du        
    446 ****       247.5000 363.5000 -66.7500 Du        
    447 ****       247.5000 363.5000 -66.5000 Du        
    448 ****       247.5000 363.5000 -66.2500 Du        
    449 ****       247.5000 363.5000 -66.0000 Du        
    450 ****       247.5000 363.5000 -65.7500 Du        
    451 ****       247.5000 363.5000 -65.5000 Du        
    452 ****       247.5000 363.5000 -65.0000 Du        
    453 ****       247.5000 363.5000 -64.7500 Du        
    454 ****       247.5000 363.5000 -64.5000 Du        
    455 ****       247.5000 363.5000 -64.2500 Du        
    456 ****       247.5000 363.5000 -64.0000 Du        
    457 ****       247.5000 363.5000 -63.7500 Du        
    458 ****       247.5000 363.5000 -63.5000 Du        
    459 ****       247.5000 363.5000 -63.2500 Du        
    460 ****       247.5000 363.5000 -63.0000 Du        
    461 ****       247.5000 363.5000 -62.7500 Du        
    462 ****       247.5000 363.5000 -62.5000 Du        
    463 ****       247.5000 363.5000 -62.2500 Du        
    464 ****       247.5000 363.5000 -62.0000 Du        
    465 ****       247.5000 363.5000 -61.7500 Du        
    466 ****       247.5000 363.7500 -64.2500 Du        
    467 ****       247.5000 363.7500 -64.0000 Du        
    468 ****       247.5000 363.7500 -63.7500 Du        
    469 ****       247.5000 363.7500 -63.5000 Du        
    470 ****       247.5000 363.7500 -63.2500 Du        
    471 ****       247.5000 363.7500 -63.0000 Du        
    472 ****       247.5000 363.7500 -62.7500 Du        
    473 ****       247.5000 363.7500 -62.5000 Du        
    474 ****       247.5000 363.7500 -62.2500 Du        
    475 ****       247.5000 363.7500 -62.0000 Du        
    476 ****       247.7500 357.2500 -76.0000 Du        
    477 ****       247.7500 357.2500 -75.7500 Du        
    478 ****       247.7500 357.2500 -75.5000 Du        
    479 ****       247.7500 357.5000 -76.0000 Du        
    480 ****       247.7500 357.5000 -75.7500 Du        
    481 ****       247.7500 357.5000 -75.5000 Du        
    482 ****       247.7500 357.5000 -75.2500 Du        
    483 ****       247.7500 357.5000 -75.0000 Du        
    484 ****       247.7500 357.5000 -74.7500 Du        
    485 ****       247.7500 357.5000 -74.5000 Du        
    486 ****       247.7500 357.5000 -74.2500 Du        
    487 ****       247.7500 357.5000 -74.0000 Du        
    488 ****       247.7500 357.7500 -76.2500 Du        
    489 ****       247.7500 357.7500 -76.0000 Du        
    490 ****       247.7500 357.7500 -75.7500 Du        
    491 ****       247.7500 357.7500 -75.5000 Du        
    492 ****       247.7500 357.7500 -75.2500 Du        
    493 ****       247.7500 357.7500 -75.0000 Du        
    494 ****       247.7500 357.7500 -74.7500 Du        
    495 ****       247.7500 357.7500 -74.5000 Du        
    496 ****       247.7500 357.7500 -74.2500 Du        
    497 ****       247.7500 357.7500 -74.0000 Du        
    498 ****       247.7500 357.7500 -73.7500 Du        
    499 ****       247.7500 357.7500 -73.5000 Du        
    500 ****       247.7500 358.0000 -76.0000 Du        
    501 ****       247.7500 358.0000 -75.7500 Du        
    502 ****       247.7500 358.0000 -75.5000 Du        
    503 ****       247.7500 358.0000 -75.2500 Du        
    504 ****       247.7500 358.0000 -75.0000 Du        
    505 ****       247.7500 358.0000 -74.7500 Du        
    506 ****       247.7500 358.0000 -74.5000 Du        
    507 ****       247.7500 358.0000 -74.2500 Du        
    508 ****       247.7500 358.0000 -74.0000 Du        
    509 ****       247.7500 358.0000 -73.7500 Du        
    510 ****       247.7500 358.0000 -73.5000 Du        
    511 ****       247.7500 358.2500 -76.0000 Du        
    512 ****       247.7500 358.2500 -75.7500 Du        
    513 ****       247.7500 358.2500 -75.5000 Du        
    514 ****       247.7500 358.2500 -75.2500 Du        
    515 ****       247.7500 358.2500 -75.0000 Du        
    516 ****       247.7500 358.2500 -74.7500 Du        
    517 ****       247.7500 358.2500 -74.5000 Du        
    518 ****       247.7500 358.2500 -74.2500 Du        
    519 ****       247.7500 358.2500 -74.0000 Du        
    520 ****       247.7500 358.2500 -73.7500 Du        
    521 ****       247.7500 358.5000 -76.0000 Du        
    522 ****       247.7500 358.5000 -75.7500 Du        
    523 ****       247.7500 358.5000 -75.5000 Du        
    524 ****       247.7500 358.5000 -75.2500 Du        
    525 ****       247.7500 358.5000 -75.0000 Du        
    526 ****       247.7500 358.5000 -74.7500 Du        
    527 ****       247.7500 358.5000 -74.5000 Du        
    528 ****       247.7500 358.5000 -74.2500 Du        
    529 ****       247.7500 358.5000 -74.0000 Du        
    530 ****       247.7500 358.5000 -73.7500 Du        
    531 ****       247.7500 358.7500 -76.0000 Du        
    532 ****       247.7500 358.7500 -75.7500 Du        
    533 ****       247.7500 358.7500 -75.5000 Du        
    534 ****       247.7500 358.7500 -75.2500 Du        
    535 ****       247.7500 358.7500 -75.0000 Du        
    536 ****       247.7500 358.7500 -74.7500 Du        
    537 ****       247.7500 358.7500 -74.5000 Du        
    538 ****       247.7500 358.7500 -74.2500 Du        
    539 ****       247.7500 358.7500 -74.0000 Du        
    540 ****       247.7500 359.0000 -76.0000 Du        
    541 ****       247.7500 359.0000 -75.7500 Du        
    542 ****       247.7500 359.0000 -75.5000 Du        
    543 ****       247.7500 359.0000 -75.2500 Du        
    544 ****       247.7500 359.0000 -75.0000 Du        
    545 ****       247.7500 359.0000 -74.7500 Du        
    546 ****       247.7500 359.0000 -74.5000 Du        
    547 ****       247.7500 359.0000 -74.2500 Du        
    548 ****       247.7500 359.0000 -74.0000 Du        
    549 ****       247.7500 359.2500 -76.0000 Du        
    550 ****       247.7500 359.2500 -75.7500 Du        
    551 ****       247.7500 359.2500 -75.5000 Du        
    552 ****       247.7500 359.2500 -75.2500 Du        
    553 ****       247.7500 359.2500 -75.0000 Du        
    554 ****       247.7500 359.2500 -74.7500 Du        
    555 ****       247.7500 359.2500 -74.5000 Du        
    556 ****       247.7500 359.2500 -74.2500 Du        
    557 ****       247.7500 359.5000 -75.2500 Du        
    558 ****       247.7500 359.5000 -75.0000 Du        
    559 ****       247.7500 359.5000 -74.7500 Du        
    560 ****       247.7500 359.5000 -74.5000 Du        
    561 ****       247.7500 359.5000 -74.2500 Du        
    562 ****       247.7500 359.7500 -75.2500 Du        
    563 ****       247.7500 359.7500 -75.0000 Du        
    564 ****       247.7500 359.7500 -74.7500 Du        
    565 ****       247.7500 359.7500 -74.5000 Du        
    566 ****       247.7500 360.0000 -75.2500 Du        
    567 ****       247.7500 360.0000 -75.0000 Du        
    568 ****       247.7500 360.0000 -74.7500 Du        
    569 ****       247.7500 360.0000 -74.5000 Du        
    570 ****       247.7500 360.2500 -75.0000 Du        
    571 ****       247.7500 360.2500 -74.7500 Du        
    572 ****       247.7500 361.7500 -77.2500 Du        
    573 ****       247.7500 361.7500 -77.0000 Du        
    574 ****       247.7500 362.0000 -77.5000 Du        
    575 ****       247.7500 362.0000 -77.2500 Du        
    576 ****       247.7500 362.0000 -77.0000 Du        
    577 ****       247.7500 362.0000 -67.0000 Du        
    578 ****       247.7500 362.0000 -66.7500 Du        
    579 ****       247.7500 362.0000 -66.5000 Du        
    580 ****       247.7500 362.0000 -66.2500 Du        
    581 ****       247.7500 362.0000 -66.0000 Du        
    582 ****       247.7500 362.0000 -65.7500 Du        
    583 ****       247.7500 362.0000 -65.5000 Du        
    584 ****       247.7500 362.0000 -65.2500 Du        
    585 ****       247.7500 362.0000 -65.0000 Du        
    586 ****       247.7500 362.2500 -77.5000 Du        
    587 ****       247.7500 362.2500 -77.2500 Du        
    588 ****       247.7500 362.2500 -77.0000 Du        
    589 ****       247.7500 362.2500 -67.2500 Du        
    590 ****       247.7500 362.2500 -67.0000 Du        
    591 ****       247.7500 362.2500 -66.7500 Du        
    592 ****       247.7500 362.2500 -66.5000 Du        
    593 ****       247.7500 362.2500 -66.2500 Du        
    594 ****       247.7500 362.2500 -66.0000 Du        
    595 ****       247.7500 362.2500 -65.7500 Du        
    596 ****       247.7500 362.2500 -65.5000 Du        
    597 ****       247.7500 362.2500 -65.2500 Du        
    598 ****       247.7500 362.2500 -65.0000 Du        
    599 ****       247.7500 362.2500 -64.7500 Du        
    600 ****       247.7500 362.2500 -64.5000 Du        
    601 ****       247.7500 362.2500 -64.2500 Du        
    602 ****       247.7500 362.2500 -64.0000 Du        
    603 ****       247.7500 362.5000 -67.2500 Du        
    604 ****       247.7500 362.5000 -67.0000 Du        
    605 ****       247.7500 362.5000 -66.7500 Du        
    606 ****       247.7500 362.5000 -66.5000 Du        
    607 ****       247.7500 362.5000 -66.2500 Du        
    608 ****       247.7500 362.5000 -66.0000 Du        
    609 ****       247.7500 362.5000 -65.7500 Du        
    610 ****       247.7500 362.5000 -65.5000 Du        
    611 ****       247.7500 362.5000 -65.2500 Du        
    612 ****       247.7500 362.5000 -65.0000 Du        
    613 ****       247.7500 362.5000 -64.7500 Du        
    614 ****       247.7500 362.5000 -64.5000 Du        
    615 ****       247.7500 362.5000 -64.2500 Du        
    616 ****       247.7500 362.5000 -64.0000 Du        
    617 ****       247.7500 362.5000 -63.7500 Du        
    618 ****       247.7500 362.5000 -63.5000 Du        
    619 ****       247.7500 362.5000 -63.2500 Du        
    620 ****       247.7500 362.5000 -63.0000 Du        
    621 ****       247.7500 362.7500 -67.5000 Du        
    622 ****       247.7500 362.7500 -67.2500 Du        
    623 ****       247.7500 362.7500 -67.0000 Du        
    624 ****       247.7500 362.7500 -66.7500 Du        
    625 ****       247.7500 362.7500 -66.5000 Du        
    626 ****       247.7500 362.7500 -66.2500 Du        
    627 ****       247.7500 362.7500 -66.0000 Du        
    628 ****       247.7500 362.7500 -65.7500 Du        
    629 ****       247.7500 362.7500 -65.5000 Du        
    630 ****       247.7500 362.7500 -65.2500 Du        
    631 ****       247.7500 362.7500 -65.0000 Du        
    632 ****       247.7500 362.7500 -64.7500 Du        
    633 ****       247.7500 362.7500 -64.5000 Du        
    634 ****       247.7500 362.7500 -64.2500 Du        
    635 ****       247.7500 362.7500 -64.0000 Du        
    636 ****       247.7500 362.7500 -63.7500 Du        
    637 ****       247.7500 362.7500 -63.5000 Du        
    638 ****       247.7500 362.7500 -63.2500 Du        
    639 ****       247.7500 362.7500 -63.0000 Du        
    640 ****       247.7500 362.7500 -62.7500 Du        
    641 ****       247.7500 362.7500 -62.5000 Du        
    642 ****       247.7500 362.7500 -62.2500 Du        
    643 ****       247.7500 362.7500 -62.0000 Du        
    644 ****       247.7500 362.7500 -61.7500 Du        
    645 ****       247.7500 362.7500 -61.5000 Du        
    646 ****       247.7500 363.0000 -77.5000 Du        
    647 ****       247.7500 363.0000 -67.5000 Du        
    648 ****       247.7500 363.0000 -67.2500 Du        
    649 ****       247.7500 363.0000 -67.0000 Du        
    650 ****       247.7500 363.0000 -66.7500 Du        
    651 ****       247.7500 363.0000 -66.5000 Du        
    652 ****       247.7500 363.0000 -66.2500 Du        
    653 ****       247.7500 363.0000 -66.0000 Du        
    654 ****       247.7500 363.0000 -65.7500 Du        
    655 ****       247.7500 363.0000 -65.5000 Du        
    656 ****       247.7500 363.0000 -65.2500 Du        
    657 ****       247.7500 363.0000 -65.0000 Du        
    658 ****       247.7500 363.0000 -64.7500 Du        
    659 ****       247.7500 363.0000 -64.5000 Du        
    660 ****       247.7500 363.0000 -64.2500 Du        
    661 ****       247.7500 363.0000 -64.0000 Du        
    662 ****       247.7500 363.0000 -63.7500 Du        
    663 ****       247.7500 363.0000 -63.5000 Du        
    664 ****       247.7500 363.0000 -63.2500 Du        
    665 ****       247.7500 363.0000 -63.0000 Du        
    666 ****       247.7500 363.0000 -62.7500 Du        
    667 ****       247.7500 363.0000 -62.5000 Du        
    668 ****       247.7500 363.0000 -62.2500 Du        
    669 ****       247.7500 363.0000 -62.0000 Du        
    670 ****       247.7500 363.0000 -61.7500 Du        
    671 ****       247.7500 363.0000 -61.5000 Du        
    672 ****       247.7500 363.2500 -77.5000 Du        
    673 ****       247.7500 363.2500 -77.2500 Du        
    674 ****       247.7500 363.2500 -67.5000 Du        
    675 ****       247.7500 363.2500 -67.2500 Du        
    676 ****       247.7500 363.2500 -67.0000 Du        
    677 ****       247.7500 363.2500 -66.7500 Du        
    678 ****       247.7500 363.2500 -66.5000 Du        
    679 ****       247.7500 363.2500 -66.2500 Du        
    680 ****       247.7500 363.2500 -66.0000 Du        
    681 ****       247.7500 363.2500 -65.7500 Du        
    682 ****       247.7500 363.2500 -65.5000 Du        
    683 ****       247.7500 363.2500 -65.2500 Du        
    684 ****       247.7500 363.2500 -65.0000 Du        
    685 ****       247.7500 363.2500 -64.7500 Du        
    686 ****       247.7500 363.2500 -64.5000 Du        
    687 ****       247.7500 363.2500 -64.2500 Du        
    688 ****       247.7500 363.2500 -64.0000 Du        
    689 ****       247.7500 363.2500 -63.7500 Du        
    690 ****       247.7500 363.2500 -63.5000 Du        
    691 ****       247.7500 363.2500 -63.2500 Du        
    692 ****       247.7500 363.2500 -63.0000 Du        
    693 ****       247.7500 363.2500 -62.7500 Du        
    694 ****       247.7500 363.2500 -62.5000 Du        
    695 ****       247.7500 363.2500 -62.2500 Du        
    696 ****       247.7500 363.2500 -62.0000 Du        
    697 ****       247.7500 363.2500 -61.7500 Du        
    698 ****       247.7500 363.2500 -61.5000 Du        
    699 ****       247.7500 363.5000 -67.2500 Du        
    700 ****       247.7500 363.5000 -67.0000 Du        
    701 ****       247.7500 363.5000 -66.7500 Du        
    702 ****       247.7500 363.5000 -66.5000 Du        
    703 ****       247.7500 363.5000 -66.2500 Du        
    704 ****       247.7500 363.5000 -66.0000 Du        
    705 ****       247.7500 363.5000 -65.7500 Du        
    706 ****       247.7500 363.5000 -65.5000 Du        
    707 ****       247.7500 363.5000 -65.2500 Du        
    708 ****       247.7500 363.5000 -65.0000 Du        
    709 ****       247.7500 363.5000 -64.7500 Du        
    710 ****       247.7500 363.5000 -64.5000 Du        
    711 ****       247.7500 363.5000 -64.2500 Du        
    712 ****       247.7500 363.5000 -64.0000 Du        
    713 ****       247.7500 363.5000 -63.7500 Du        
    714 ****       247.7500 363.5000 -63.5000 Du        
    715 ****       247.7500 363.5000 -63.2500 Du        
    716 ****       247.7500 363.5000 -63.0000 Du        
    717 ****       247.7500 363.5000 -62.7500 Du        
    718 ****       247.7500 363.5000 -62.5000 Du        
    719 ****       247.7500 363.5000 -62.2500 Du        
    720 ****       247.7500 363.5000 -62.0000 Du        
    721 ****       247.7500 363.7500 -67.2500 Du        
    722 ****       247.7500 363.7500 -67.0000 Du        
    723 ****       247.7500 363.7500 -66.7500 Du        
    724 ****       247.7500 363.7500 -66.5000 Du        
    725 ****       247.7500 363.7500 -66.2500 Du        
    726 ****       247.7500 363.7500 -66.0000 Du        
    727 ****       247.7500 363.7500 -65.7500 Du        
    728 ****       247.7500 363.7500 -64.5000 Du        
    729 ****       247.7500 363.7500 -64.2500 Du        
    730 ****       247.7500 363.7500 -64.0000 Du        
    731 ****       247.7500 363.7500 -63.7500 Du        
    732 ****       247.7500 363.7500 -63.5000 Du        
    733 ****       247.7500 363.7500 -63.2500 Du        
    734 ****       247.7500 363.7500 -63.0000 Du        
    735 ****       247.7500 363.7500 -62.7500 Du        
    736 ****       248.0000 357.2500 -76.0000 Du        
    737 ****       248.0000 357.2500 -75.7500 Du        
    738 ****       248.0000 357.2500 -75.5000 Du        
    739 ****       248.0000 357.5000 -76.0000 Du        
    740 ****       248.0000 357.5000 -75.7500 Du        
    741 ****       248.0000 357.5000 -75.5000 Du        
    742 ****       248.0000 357.5000 -75.2500 Du        
    743 ****       248.0000 357.5000 -75.0000 Du        
    744 ****       248.0000 357.5000 -74.7500 Du        
    745 ****       248.0000 357.5000 -74.5000 Du        
    746 ****       248.0000 357.7500 -76.0000 Du        
    747 ****       248.0000 357.7500 -75.7500 Du        
    748 ****       248.0000 357.7500 -75.5000 Du        
    749 ****       248.0000 357.7500 -75.2500 Du        
    750 ****       248.0000 357.7500 -75.0000 Du        
    751 ****       248.0000 357.7500 -74.7500 Du        
    752 ****       248.0000 357.7500 -74.5000 Du        
    753 ****       248.0000 357.7500 -74.2500 Du        
    754 ****       248.0000 357.7500 -74.0000 Du        
    755 ****       248.0000 357.7500 -73.7500 Du        
    756 ****       248.0000 358.0000 -76.0000 Du        
    757 ****       248.0000 358.0000 -75.7500 Du        
    758 ****       248.0000 358.0000 -75.5000 Du        
    759 ****       248.0000 358.0000 -75.2500 Du        
    760 ****       248.0000 358.0000 -75.0000 Du        
    761 ****       248.0000 358.0000 -74.7500 Du        
    762 ****       248.0000 358.0000 -74.5000 Du        
    763 ****       248.0000 358.0000 -74.2500 Du        
    764 ****       248.0000 358.0000 -74.0000 Du        
    765 ****       248.0000 358.0000 -73.7500 Du        
    766 ****       248.0000 358.2500 -75.7500 Du        
    767 ****       248.0000 358.2500 -75.5000 Du        
    768 ****       248.0000 358.2500 -75.2500 Du        
    769 ****       248.0000 358.2500 -75.0000 Du        
    770 ****       248.0000 358.2500 -74.7500 Du        
    771 ****       248.0000 358.2500 -74.5000 Du        
    772 ****       248.0000 358.2500 -74.2500 Du        
    773 ****       248.0000 358.2500 -74.0000 Du        
    774 ****       248.0000 358.2500 -73.7500 Du        
    775 ****       248.0000 358.5000 -75.7500 Du        
    776 ****       248.0000 358.5000 -75.5000 Du        
    777 ****       248.0000 358.5000 -75.2500 Du        
    778 ****       248.0000 358.5000 -75.0000 Du        
    779 ****       248.0000 358.5000 -74.7500 Du        
    780 ****       248.0000 358.5000 -74.5000 Du        
    781 ****       248.0000 358.5000 -74.2500 Du        
    782 ****       248.0000 358.5000 -74.0000 Du        
    783 ****       248.0000 358.7500 -75.7500 Du        
    784 ****       248.0000 358.7500 -75.5000 Du        
    785 ****       248.0000 358.7500 -75.2500 Du        
    786 ****       248.0000 358.7500 -75.0000 Du        
    787 ****       248.0000 358.7500 -74.7500 Du        
    788 ****       248.0000 358.7500 -74.5000 Du        
    789 ****       248.0000 358.7500 -74.2500 Du        
    790 ****       248.0000 358.7500 -74.0000 Du        
    791 ****       248.0000 359.0000 -75.7500 Du        
    792 ****       248.0000 359.0000 -75.5000 Du        
    793 ****       248.0000 359.0000 -75.2500 Du        
    794 ****       248.0000 359.0000 -75.0000 Du        
    795 ****       248.0000 359.0000 -74.7500 Du        
    796 ****       248.0000 359.0000 -74.5000 Du        
    797 ****       248.0000 359.0000 -74.2500 Du        
    798 ****       248.0000 359.2500 -75.7500 Du        
    799 ****       248.0000 359.2500 -75.5000 Du        
    800 ****       248.0000 359.2500 -75.2500 Du        
    801 ****       248.0000 359.2500 -75.0000 Du        
    802 ****       248.0000 359.2500 -74.7500 Du        
    803 ****       248.0000 359.2500 -74.5000 Du        
    804 ****       248.0000 359.2500 -74.2500 Du        
    805 ****       248.0000 359.5000 -75.7500 Du        
    806 ****       248.0000 359.5000 -75.5000 Du        
    807 ****       248.0000 359.5000 -75.2500 Du        
    808 ****       248.0000 359.5000 -75.0000 Du        
    809 ****       248.0000 359.5000 -74.7500 Du        
    810 ****       248.0000 359.5000 -74.5000 Du        
    811 ****       248.0000 359.7500 -76.0000 Du        
    812 ****       248.0000 359.7500 -75.7500 Du        
    813 ****       248.0000 359.7500 -75.5000 Du        
    814 ****       248.0000 359.7500 -75.2500 Du        
    815 ****       248.0000 359.7500 -75.0000 Du        
    816 ****       248.0000 359.7500 -74.7500 Du        
    817 ****       248.0000 359.7500 -74.5000 Du        
    818 ****       248.0000 360.0000 -76.2500 Du        
    819 ****       248.0000 360.0000 -76.0000 Du        
    820 ****       248.0000 360.0000 -75.7500 Du        
    821 ****       248.0000 360.0000 -75.5000 Du        
    822 ****       248.0000 360.0000 -75.2500 Du        
    823 ****       248.0000 360.0000 -75.0000 Du        
    824 ****       248.0000 360.0000 -74.7500 Du        
    825 ****       248.0000 360.0000 -74.5000 Du        
    826 ****       248.0000 360.2500 -76.2500 Du        
    827 ****       248.0000 360.2500 -76.0000 Du        
    828 ****       248.0000 360.2500 -75.7500 Du        
    829 ****       248.0000 360.2500 -75.5000 Du        
    830 ****       248.0000 360.2500 -75.2500 Du        
    831 ****       248.0000 360.2500 -75.0000 Du        
    832 ****       248.0000 360.2500 -74.7500 Du        
    833 ****       248.0000 360.2500 -74.5000 Du        
    834 ****       248.0000 360.5000 -75.2500 Du        
    835 ****       248.0000 360.5000 -75.0000 Du        
    836 ****       248.0000 360.7500 -75.2500 Du        
    837 ****       248.0000 360.7500 -75.0000 Du        
    838 ****       248.0000 361.0000 -77.0000 Du        
    839 ****       248.0000 361.0000 -76.7500 Du        
    840 ****       248.0000 361.0000 -75.0000 Du        
    841 ****       248.0000 361.2500 -77.2500 Du        
    842 ****       248.0000 361.2500 -77.0000 Du        
    843 ****       248.0000 361.2500 -76.7500 Du        
    844 ****       248.0000 361.2500 -76.0000 Du        
    845 ****       248.0000 361.5000 -77.5000 Du        
    846 ****       248.0000 361.5000 -77.2500 Du        
    847 ****       248.0000 361.5000 -77.0000 Du        
    848 ****       248.0000 361.5000 -76.7500 Du        
    849 ****       248.0000 361.5000 -76.0000 Du        
    850 ****       248.0000 361.7500 -77.5000 Du        
    851 ****       248.0000 361.7500 -77.2500 Du        
    852 ****       248.0000 361.7500 -77.0000 Du        
    853 ****       248.0000 361.7500 -76.7500 Du        
    854 ****       248.0000 361.7500 -76.2500 Du        
    855 ****       248.0000 361.7500 -76.0000 Du        
    856 ****       248.0000 362.0000 -77.5000 Du        
    857 ****       248.0000 362.0000 -77.2500 Du        
    858 ****       248.0000 362.0000 -77.0000 Du        
    859 ****       248.0000 362.0000 -76.7500 Du        
    860 ****       248.0000 362.0000 -76.2500 Du        
    861 ****       248.0000 362.0000 -76.0000 Du        
    862 ****       248.0000 362.0000 -75.7500 Du        
    863 ****       248.0000 362.0000 -75.2500 Du        
    864 ****       248.0000 362.0000 -66.7500 Du        
    865 ****       248.0000 362.0000 -66.5000 Du        
    866 ****       248.0000 362.0000 -66.2500 Du        
    867 ****       248.0000 362.0000 -66.0000 Du        
    868 ****       248.0000 362.0000 -65.7500 Du        
    869 ****       248.0000 362.0000 -65.5000 Du        
    870 ****       248.0000 362.0000 -65.2500 Du        
    871 ****       248.0000 362.0000 -65.0000 Du        
    872 ****       248.0000 362.0000 -64.7500 Du        
    873 ****       248.0000 362.2500 -77.5000 Du        
    874 ****       248.0000 362.2500 -77.2500 Du        
    875 ****       248.0000 362.2500 -77.0000 Du        
    876 ****       248.0000 362.2500 -76.7500 Du        
    877 ****       248.0000 362.2500 -76.5000 Du        
    878 ****       248.0000 362.2500 -76.2500 Du        
    879 ****       248.0000 362.2500 -76.0000 Du        
    880 ****       248.0000 362.2500 -75.7500 Du        
    881 ****       248.0000 362.2500 -67.2500 Du        
    882 ****       248.0000 362.2500 -67.0000 Du        
    883 ****       248.0000 362.2500 -66.7500 Du        
    884 ****       248.0000 362.2500 -66.5000 Du        
    885 ****       248.0000 362.2500 -66.2500 Du        
    886 ****       248.0000 362.2500 -66.0000 Du        
    887 ****       248.0000 362.2500 -65.7500 Du        
    888 ****       248.0000 362.2500 -65.5000 Du        
    889 ****       248.0000 362.2500 -65.2500 Du        
    890 ****       248.0000 362.2500 -65.0000 Du        
    891 ****       248.0000 362.2500 -64.7500 Du        
    892 ****       248.0000 362.2500 -64.5000 Du        
    893 ****       248.0000 362.2500 -64.2500 Du        
    894 ****       248.0000 362.2500 -64.0000 Du        
    895 ****       248.0000 362.2500 -63.7500 Du        
    896 ****       248.0000 362.2500 -63.5000 Du        
    897 ****       248.0000 362.2500 -63.2500 Du        
    898 ****       248.0000 362.2500 -63.0000 Du        
    899 ****       248.0000 362.2500 -62.7500 Du        
    900 ****       248.0000 362.5000 -77.5000 Du        
    901 ****       248.0000 362.5000 -77.2500 Du        
    902 ****       248.0000 362.5000 -77.0000 Du        
    903 ****       248.0000 362.5000 -76.7500 Du        
    904 ****       248.0000 362.5000 -76.2500 Du        
    905 ****       248.0000 362.5000 -76.0000 Du        
    906 ****       248.0000 362.5000 -75.7500 Du        
    907 ****       248.0000 362.5000 -67.2500 Du        
    908 ****       248.0000 362.5000 -67.0000 Du        
    909 ****       248.0000 362.5000 -66.7500 Du        
    910 ****       248.0000 362.5000 -66.5000 Du        
    911 ****       248.0000 362.5000 -66.2500 Du        
    912 ****       248.0000 362.5000 -66.0000 Du        
    913 ****       248.0000 362.5000 -65.7500 Du        
    914 ****       248.0000 362.5000 -65.5000 Du        
    915 ****       248.0000 362.5000 -65.2500 Du        
    916 ****       248.0000 362.5000 -65.0000 Du        
    917 ****       248.0000 362.5000 -64.7500 Du        
    918 ****       248.0000 362.5000 -64.5000 Du        
    919 ****       248.0000 362.5000 -64.2500 Du        
    920 ****       248.0000 362.5000 -64.0000 Du        
    921 ****       248.0000 362.5000 -63.7500 Du        
    922 ****       248.0000 362.5000 -63.5000 Du        
    923 ****       248.0000 362.5000 -63.2500 Du        
    924 ****       248.0000 362.5000 -63.0000 Du        
    925 ****       248.0000 362.5000 -62.7500 Du        
    926 ****       248.0000 362.5000 -62.5000 Du        
    927 ****       248.0000 362.5000 -62.2500 Du        
    928 ****       248.0000 362.5000 -62.0000 Du        
    929 ****       248.0000 362.5000 -61.7500 Du        
    930 ****       248.0000 362.7500 -77.5000 Du        
    931 ****       248.0000 362.7500 -77.2500 Du        
    932 ****       248.0000 362.7500 -77.0000 Du        
    933 ****       248.0000 362.7500 -76.7500 Du        
    934 ****       248.0000 362.7500 -76.5000 Du        
    935 ****       248.0000 362.7500 -76.2500 Du        
    936 ****       248.0000 362.7500 -76.0000 Du        
    937 ****       248.0000 362.7500 -75.7500 Du        
    938 ****       248.0000 362.7500 -67.5000 Du        
    939 ****       248.0000 362.7500 -67.2500 Du        
    940 ****       248.0000 362.7500 -67.0000 Du        
    941 ****       248.0000 362.7500 -66.7500 Du        
    942 ****       248.0000 362.7500 -66.5000 Du        
    943 ****       248.0000 362.7500 -66.2500 Du        
    944 ****       248.0000 362.7500 -66.0000 Du        
    945 ****       248.0000 362.7500 -65.7500 Du        
    946 ****       248.0000 362.7500 -65.5000 Du        
    947 ****       248.0000 362.7500 -65.2500 Du        
    948 ****       248.0000 362.7500 -65.0000 Du        
    949 ****       248.0000 362.7500 -64.7500 Du        
    950 ****       248.0000 362.7500 -64.5000 Du        
    951 ****       248.0000 362.7500 -64.2500 Du        
    952 ****       248.0000 362.7500 -64.0000 Du        
    953 ****       248.0000 362.7500 -63.7500 Du        
    954 ****       248.0000 362.7500 -63.5000 Du        
    955 ****       248.0000 362.7500 -63.2500 Du        
    956 ****       248.0000 362.7500 -63.0000 Du        
    957 ****       248.0000 362.7500 -62.7500 Du        
    958 ****       248.0000 362.7500 -62.5000 Du        
    959 ****       248.0000 362.7500 -62.2500 Du        
    960 ****       248.0000 362.7500 -62.0000 Du        
    961 ****       248.0000 362.7500 -61.7500 Du        
    962 ****       248.0000 362.7500 -61.5000 Du        
    963 ****       248.0000 363.0000 -77.5000 Du        
    964 ****       248.0000 363.0000 -77.2500 Du        
    965 ****       248.0000 363.0000 -77.0000 Du        
    966 ****       248.0000 363.0000 -76.7500 Du        
    967 ****       248.0000 363.0000 -76.5000 Du        
    968 ****       248.0000 363.0000 -76.2500 Du        
    969 ****       248.0000 363.0000 -76.0000 Du        
    970 ****       248.0000 363.0000 -75.7500 Du        
    971 ****       248.0000 363.0000 -67.5000 Du        
    972 ****       248.0000 363.0000 -67.2500 Du        
    973 ****       248.0000 363.0000 -67.0000 Du        
    974 ****       248.0000 363.0000 -66.7500 Du        
    975 ****       248.0000 363.0000 -66.5000 Du        
    976 ****       248.0000 363.0000 -66.2500 Du        
    977 ****       248.0000 363.0000 -66.0000 Du        
    978 ****       248.0000 363.0000 -65.7500 Du        
    979 ****       248.0000 363.0000 -65.5000 Du        
    980 ****       248.0000 363.0000 -65.2500 Du        
    981 ****       248.0000 363.0000 -65.0000 Du        
    982 ****       248.0000 363.0000 -64.7500 Du        
    983 ****       248.0000 363.0000 -64.5000 Du        
    984 ****       248.0000 363.0000 -64.2500 Du        
    985 ****       248.0000 363.0000 -64.0000 Du        
    986 ****       248.0000 363.0000 -63.7500 Du        
    987 ****       248.0000 363.0000 -63.5000 Du        
    988 ****       248.0000 363.0000 -63.2500 Du        
    989 ****       248.0000 363.0000 -63.0000 Du        
    990 ****       248.0000 363.0000 -62.7500 Du        
    991 ****       248.0000 363.0000 -62.5000 Du        
    992 ****       248.0000 363.0000 -62.2500 Du        
    993 ****       248.0000 363.0000 -62.0000 Du        
    994 ****       248.0000 363.0000 -61.7500 Du        
    995 ****       248.0000 363.2500 -77.5000 Du        
    996 ****       248.0000 363.2500 -77.2500 Du        
    997 ****       248.0000 363.2500 -77.0000 Du        
    998 ****       248.0000 363.2500 -76.7500 Du        
    999 ****       248.0000 363.2500 -76.5000 Du        
   1000 ****       248.0000 363.2500 -76.2500 Du        
   1001 ****       248.0000 363.2500 -76.0000 Du        
   1002 ****       248.0000 363.2500 -67.7500 Du        
   1003 ****       248.0000 363.2500 -67.5000 Du        
   1004 ****       248.0000 363.2500 -67.2500 Du        
   1005 ****       248.0000 363.2500 -67.0000 Du        
   1006 ****       248.0000 363.2500 -66.7500 Du        
   1007 ****       248.0000 363.2500 -66.5000 Du        
   1008 ****       248.0000 363.2500 -66.2500 Du        
   1009 ****       248.0000 363.2500 -66.0000 Du        
   1010 ****       248.0000 363.2500 -65.7500 Du        
   1011 ****       248.0000 363.2500 -65.5000 Du        
   1012 ****       248.0000 363.2500 -65.2500 Du        
   1013 ****       248.0000 363.2500 -65.0000 Du        
   1014 ****       248.0000 363.2500 -64.7500 Du        
   1015 ****       248.0000 363.2500 -64.5000 Du        
   1016 ****       248.0000 363.2500 -64.2500 Du        
   1017 ****       248.0000 363.2500 -64.0000 Du        
   1018 ****       248.0000 363.2500 -63.7500 Du        
   1019 ****       248.0000 363.2500 -63.5000 Du        
   1020 ****       248.0000 363.2500 -63.2500 Du        
   1021 ****       248.0000 363.2500 -63.0000 Du        
   1022 ****       248.0000 363.2500 -62.7500 Du        
   1023 ****       248.0000 363.2500 -62.5000 Du        
   1024 ****       248.0000 363.2500 -62.2500 Du        
   1025 ****       248.0000 363.2500 -62.0000 Du        
   1026 ****       248.0000 363.2500 -61.7500 Du        
   1027 ****       248.0000 363.5000 -77.5000 Du        
   1028 ****       248.0000 363.5000 -77.2500 Du        
   1029 ****       248.0000 363.5000 -77.0000 Du        
   1030 ****       248.0000 363.5000 -76.7500 Du        
   1031 ****       248.0000 363.5000 -67.5000 Du        
   1032 ****       248.0000 363.5000 -67.2500 Du        
   1033 ****       248.0000 363.5000 -67.0000 Du        
   1034 ****       248.0000 363.5000 -66.7500 Du        
   1035 ****       248.0000 363.5000 -66.5000 Du        
   1036 ****       248.0000 363.5000 -66.2500 Du        
   1037 ****       248.0000 363.5000 -66.0000 Du        
   1038 ****       248.0000 363.5000 -65.7500 Du        
   1039 ****       248.0000 363.5000 -65.5000 Du        
   1040 ****       248.0000 363.5000 -65.2500 Du        
   1041 ****       248.0000 363.5000 -65.0000 Du        
   1042 ****       248.0000 363.5000 -64.7500 Du        
   1043 ****       248.0000 363.5000 -64.5000 Du        
   1044 ****       248.0000 363.5000 -64.2500 Du        
   1045 ****       248.0000 363.5000 -64.0000 Du        
   1046 ****       248.0000 363.5000 -63.7500 Du        
   1047 ****       248.0000 363.5000 -63.5000 Du        
   1048 ****       248.0000 363.5000 -63.2500 Du        
   1049 ****       248.0000 363.5000 -63.0000 Du        
   1050 ****       248.0000 363.5000 -62.7500 Du        
   1051 ****       248.0000 363.7500 -77.0000 Du        
   1052 ****       248.0000 363.7500 -76.7500 Du        
   1053 ****       248.0000 363.7500 -67.7500 Du        
   1054 ****       248.0000 363.7500 -67.5000 Du        
   1055 ****       248.0000 363.7500 -67.2500 Du        
   1056 ****       248.0000 363.7500 -67.0000 Du        
   1057 ****       248.0000 363.7500 -66.7500 Du        
   1058 ****       248.0000 363.7500 -66.5000 Du        
   1059 ****       248.0000 363.7500 -66.2500 Du        
   1060 ****       248.0000 363.7500 -66.0000 Du        
   1061 ****       248.0000 363.7500 -64.0000 Du        
   1062 ****       248.0000 363.7500 -63.7500 Du        
   1063 ****       248.0000 364.0000 -67.7500 Du        
   1064 ****       248.0000 364.0000 -67.2500 Du        
   1065 ****       248.0000 364.0000 -67.0000 Du        
   1066 ****       248.0000 364.0000 -66.7500 Du        
   1067 ****       248.2500 357.5000 -75.7500 Du        
   1068 ****       248.2500 357.5000 -75.5000 Du        
   1069 ****       248.2500 357.5000 -75.2500 Du        
   1070 ****       248.2500 357.5000 -75.0000 Du        
   1071 ****       248.2500 357.5000 -74.7500 Du        
   1072 ****       248.2500 357.7500 -75.7500 Du        
   1073 ****       248.2500 357.7500 -75.5000 Du        
   1074 ****       248.2500 357.7500 -75.2500 Du        
   1075 ****       248.2500 357.7500 -75.0000 Du        
   1076 ****       248.2500 357.7500 -74.7500 Du        
   1077 ****       248.2500 357.7500 -74.5000 Du        
   1078 ****       248.2500 357.7500 -74.2500 Du        
   1079 ****       248.2500 357.7500 -74.0000 Du        
   1080 ****       248.2500 358.0000 -75.7500 Du        
   1081 ****       248.2500 358.0000 -75.5000 Du        
   1082 ****       248.2500 358.0000 -75.2500 Du        
   1083 ****       248.2500 358.0000 -75.0000 Du        
   1084 ****       248.2500 358.0000 -74.7500 Du        
   1085 ****       248.2500 358.0000 -74.5000 Du        
   1086 ****       248.2500 358.0000 -74.2500 Du        
   1087 ****       248.2500 358.0000 -74.0000 Du        
   1088 ****       248.2500 358.2500 -75.7500 Du        
   1089 ****       248.2500 358.2500 -75.5000 Du        
   1090 ****       248.2500 358.2500 -75.2500 Du        
   1091 ****       248.2500 358.2500 -75.0000 Du        
   1092 ****       248.2500 358.2500 -74.7500 Du        
   1093 ****       248.2500 358.2500 -74.5000 Du        
   1094 ****       248.2500 358.2500 -74.2500 Du        
   1095 ****       248.2500 358.2500 -74.0000 Du        
   1096 ****       248.2500 358.5000 -75.5000 Du        
   1097 ****       248.2500 358.5000 -75.2500 Du        
   1098 ****       248.2500 358.5000 -75.0000 Du        
   1099 ****       248.2500 358.5000 -74.7500 Du        
   1100 ****       248.2500 358.5000 -74.5000 Du        
   1101 ****       248.2500 358.5000 -74.2500 Du        
   1102 ****       248.2500 358.7500 -75.5000 Du        
   1103 ****       248.2500 358.7500 -75.2500 Du        
   1104 ****       248.2500 358.7500 -75.0000 Du        
   1105 ****       248.2500 358.7500 -74.7500 Du        
   1106 ****       248.2500 358.7500 -74.5000 Du        
   1107 ****       248.2500 358.7500 -74.2500 Du        
   1108 ****       248.2500 359.0000 -75.7500 Du        
   1109 ****       248.2500 359.0000 -75.5000 Du        
   1110 ****       248.2500 359.0000 -75.2500 Du        
   1111 ****       248.2500 359.0000 -75.0000 Du        
   1112 ****       248.2500 359.0000 -74.7500 Du        
   1113 ****       248.2500 359.0000 -74.5000 Du        
   1114 ****       248.2500 359.0000 -74.2500 Du        
   1115 ****       248.2500 359.2500 -75.7500 Du        
   1116 ****       248.2500 359.2500 -75.5000 Du        
   1117 ****       248.2500 359.2500 -75.2500 Du        
   1118 ****       248.2500 359.2500 -75.0000 Du        
   1119 ****       248.2500 359.2500 -74.7500 Du        
   1120 ****       248.2500 359.2500 -74.5000 Du        
   1121 ****       248.2500 359.5000 -75.7500 Du        
   1122 ****       248.2500 359.5000 -75.5000 Du        
   1123 ****       248.2500 359.5000 -75.2500 Du        
   1124 ****       248.2500 359.5000 -75.0000 Du        
   1125 ****       248.2500 359.5000 -74.7500 Du        
   1126 ****       248.2500 359.5000 -74.5000 Du        
   1127 ****       248.2500 359.7500 -75.7500 Du        
   1128 ****       248.2500 359.7500 -75.5000 Du        
   1129 ****       248.2500 359.7500 -75.2500 Du        
   1130 ****       248.2500 359.7500 -75.0000 Du        
   1131 ****       248.2500 359.7500 -74.7500 Du        
   1132 ****       248.2500 360.0000 -76.0000 Du        
   1133 ****       248.2500 360.0000 -75.7500 Du        
   1134 ****       248.2500 360.0000 -75.5000 Du        
   1135 ****       248.2500 360.0000 -75.2500 Du        
   1136 ****       248.2500 360.0000 -75.0000 Du        
   1137 ****       248.2500 360.0000 -74.7500 Du        
   1138 ****       248.2500 360.2500 -76.0000 Du        
   1139 ****       248.2500 360.2500 -75.7500 Du        
   1140 ****       248.2500 360.2500 -75.5000 Du        
   1141 ****       248.2500 360.2500 -75.2500 Du        
   1142 ****       248.2500 360.2500 -75.0000 Du        
   1143 ****       248.2500 360.2500 -74.7500 Du        
   1144 ****       248.2500 360.5000 -75.7500 Du        
   1145 ****       248.2500 360.5000 -75.5000 Du        
   1146 ****       248.2500 360.5000 -75.2500 Du        
   1147 ****       248.2500 360.5000 -75.0000 Du        
   1148 ****       248.2500 360.5000 -74.7500 Du        
   1149 ****       248.2500 360.7500 -76.0000 Du        
   1150 ****       248.2500 360.7500 -75.7500 Du        
   1151 ****       248.2500 360.7500 -75.5000 Du        
   1152 ****       248.2500 360.7500 -75.2500 Du        
   1153 ****       248.2500 360.7500 -75.0000 Du        
   1154 ****       248.2500 360.7500 -74.7500 Du        
   1155 ****       248.2500 361.0000 -76.7500 Du        
   1156 ****       248.2500 361.0000 -76.2500 Du        
   1157 ****       248.2500 361.0000 -76.0000 Du        
   1158 ****       248.2500 361.0000 -75.7500 Du        
   1159 ****       248.2500 361.0000 -75.5000 Du        
   1160 ****       248.2500 361.0000 -75.2500 Du        
   1161 ****       248.2500 361.0000 -75.0000 Du        
   1162 ****       248.2500 361.0000 -74.7500 Du        
   1163 ****       248.2500 361.2500 -77.2500 Du        
   1164 ****       248.2500 361.2500 -77.0000 Du        
   1165 ****       248.2500 361.2500 -76.7500 Du        
   1166 ****       248.2500 361.2500 -76.2500 Du        
   1167 ****       248.2500 361.2500 -76.0000 Du        
   1168 ****       248.2500 361.2500 -75.7500 Du        
   1169 ****       248.2500 361.2500 -75.5000 Du        
   1170 ****       248.2500 361.2500 -75.2500 Du        
   1171 ****       248.2500 361.2500 -75.0000 Du        
   1172 ****       248.2500 361.2500 -74.7500 Du        
   1173 ****       248.2500 361.5000 -77.2500 Du        
   1174 ****       248.2500 361.5000 -77.0000 Du        
   1175 ****       248.2500 361.5000 -76.7500 Du        
   1176 ****       248.2500 361.5000 -76.5000 Du        
   1177 ****       248.2500 361.5000 -76.2500 Du        
   1178 ****       248.2500 361.5000 -76.0000 Du        
   1179 ****       248.2500 361.5000 -75.7500 Du        
   1180 ****       248.2500 361.5000 -75.5000 Du        
   1181 ****       248.2500 361.5000 -75.2500 Du        
   1182 ****       248.2500 361.5000 -75.0000 Du        
   1183 ****       248.2500 361.5000 -74.7500 Du        
   1184 ****       248.2500 361.7500 -77.5000 Du        
   1185 ****       248.2500 361.7500 -77.2500 Du        
   1186 ****       248.2500 361.7500 -77.0000 Du        
   1187 ****       248.2500 361.7500 -76.7500 Du        
   1188 ****       248.2500 361.7500 -76.5000 Du        
   1189 ****       248.2500 361.7500 -76.2500 Du        
   1190 ****       248.2500 361.7500 -76.0000 Du        
   1191 ****       248.2500 361.7500 -75.7500 Du        
   1192 ****       248.2500 361.7500 -75.5000 Du        
   1193 ****       248.2500 361.7500 -75.2500 Du        
   1194 ****       248.2500 361.7500 -75.0000 Du        
   1195 ****       248.2500 361.7500 -74.7500 Du        
   1196 ****       248.2500 362.0000 -77.5000 Du        
   1197 ****       248.2500 362.0000 -77.2500 Du        
   1198 ****       248.2500 362.0000 -77.0000 Du        
   1199 ****       248.2500 362.0000 -76.7500 Du        
   1200 ****       248.2500 362.0000 -76.5000 Du        
   1201 ****       248.2500 362.0000 -76.2500 Du        
   1202 ****       248.2500 362.0000 -76.0000 Du        
   1203 ****       248.2500 362.0000 -75.7500 Du        
   1204 ****       248.2500 362.0000 -75.5000 Du        
   1205 ****       248.2500 362.0000 -75.2500 Du        
   1206 ****       248.2500 362.0000 -75.0000 Du        
   1207 ****       248.2500 362.0000 -74.7500 Du        
   1208 ****       248.2500 362.0000 -66.0000 Du        
   1209 ****       248.2500 362.0000 -65.7500 Du        
   1210 ****       248.2500 362.0000 -65.5000 Du        
   1211 ****       248.2500 362.0000 -65.2500 Du        
   1212 ****       248.2500 362.0000 -65.0000 Du        
   1213 ****       248.2500 362.0000 -64.7500 Du        
   1214 ****       248.2500 362.0000 -64.5000 Du        
   1215 ****       248.2500 362.0000 -64.2500 Du        
   1216 ****       248.2500 362.0000 -64.0000 Du        
   1217 ****       248.2500 362.0000 -63.7500 Du        
   1218 ****       248.2500 362.0000 -63.5000 Du        
   1219 ****       248.2500 362.0000 -63.2500 Du        
   1220 ****       248.2500 362.0000 -63.0000 Du        
   1221 ****       248.2500 362.2500 -77.5000 Du        
   1222 ****       248.2500 362.2500 -77.2500 Du        
   1223 ****       248.2500 362.2500 -77.0000 Du        
   1224 ****       248.2500 362.2500 -76.7500 Du        
   1225 ****       248.2500 362.2500 -76.5000 Du        
   1226 ****       248.2500 362.2500 -76.2500 Du        
   1227 ****       248.2500 362.2500 -76.0000 Du        
   1228 ****       248.2500 362.2500 -75.7500 Du        
   1229 ****       248.2500 362.2500 -75.5000 Du        
   1230 ****       248.2500 362.2500 -75.2500 Du        
   1231 ****       248.2500 362.2500 -75.0000 Du        
   1232 ****       248.2500 362.2500 -74.7500 Du        
   1233 ****       248.2500 362.2500 -67.0000 Du        
   1234 ****       248.2500 362.2500 -66.7500 Du        
   1235 ****       248.2500 362.2500 -66.5000 Du        
   1236 ****       248.2500 362.2500 -66.2500 Du        
   1237 ****       248.2500 362.2500 -66.0000 Du        
   1238 ****       248.2500 362.2500 -65.7500 Du        
   1239 ****       248.2500 362.2500 -65.5000 Du        
   1240 ****       248.2500 362.2500 -65.2500 Du        
   1241 ****       248.2500 362.2500 -65.0000 Du        
   1242 ****       248.2500 362.2500 -64.7500 Du        
   1243 ****       248.2500 362.2500 -64.5000 Du        
   1244 ****       248.2500 362.2500 -64.2500 Du        
   1245 ****       248.2500 362.2500 -64.0000 Du        
   1246 ****       248.2500 362.2500 -63.7500 Du        
   1247 ****       248.2500 362.2500 -63.5000 Du        
   1248 ****       248.2500 362.2500 -63.2500 Du        
   1249 ****       248.2500 362.2500 -63.0000 Du        
   1250 ****       248.2500 362.2500 -62.7500 Du        
   1251 ****       248.2500 362.2500 -62.5000 Du        
   1252 ****       248.2500 362.2500 -62.2500 Du        
   1253 ****       248.2500 362.2500 -62.0000 Du        
   1254 ****       248.2500 362.2500 -61.7500 Du        
   1255 ****       248.2500 362.5000 -77.5000 Du        
   1256 ****       248.2500 362.5000 -77.2500 Du        
   1257 ****       248.2500 362.5000 -77.0000 Du        
   1258 ****       248.2500 362.5000 -76.7500 Du        
   1259 ****       248.2500 362.5000 -76.5000 Du        
   1260 ****       248.2500 362.5000 -76.2500 Du        
   1261 ****       248.2500 362.5000 -76.0000 Du        
   1262 ****       248.2500 362.5000 -75.7500 Du        
   1263 ****       248.2500 362.5000 -75.5000 Du        
   1264 ****       248.2500 362.5000 -75.2500 Du        
   1265 ****       248.2500 362.5000 -75.0000 Du        
   1266 ****       248.2500 362.5000 -67.2500 Du        
   1267 ****       248.2500 362.5000 -67.0000 Du        
   1268 ****       248.2500 362.5000 -66.7500 Du        
   1269 ****       248.2500 362.5000 -66.5000 Du        
   1270 ****       248.2500 362.5000 -66.2500 Du        
   1271 ****       248.2500 362.5000 -66.0000 Du        
   1272 ****       248.2500 362.5000 -65.7500 Du        
   1273 ****       248.2500 362.5000 -65.5000 Du        
   1274 ****       248.2500 362.5000 -65.2500 Du        
   1275 ****       248.2500 362.5000 -65.0000 Du        
   1276 ****       248.2500 362.5000 -64.7500 Du        
   1277 ****       248.2500 362.5000 -64.5000 Du        
   1278 ****       248.2500 362.5000 -64.2500 Du        
   1279 ****       248.2500 362.5000 -64.0000 Du        
   1280 ****       248.2500 362.5000 -63.7500 Du        
   1281 ****       248.2500 362.5000 -63.5000 Du        
   1282 ****       248.2500 362.5000 -63.2500 Du        
   1283 ****       248.2500 362.5000 -63.0000 Du        
   1284 ****       248.2500 362.5000 -62.7500 Du        
   1285 ****       248.2500 362.5000 -62.5000 Du        
   1286 ****       248.2500 362.5000 -62.2500 Du        
   1287 ****       248.2500 362.5000 -62.0000 Du        
   1288 ****       248.2500 362.5000 -61.7500 Du        
   1289 ****       248.2500 362.7500 -77.5000 Du        
   1290 ****       248.2500 362.7500 -77.2500 Du        
   1291 ****       248.2500 362.7500 -77.0000 Du        
   1292 ****       248.2500 362.7500 -76.7500 Du        
   1293 ****       248.2500 362.7500 -76.5000 Du        
   1294 ****       248.2500 362.7500 -76.2500 Du        
   1295 ****       248.2500 362.7500 -76.0000 Du        
   1296 ****       248.2500 362.7500 -75.7500 Du        
   1297 ****       248.2500 362.7500 -75.5000 Du        
   1298 ****       248.2500 362.7500 -75.2500 Du        
   1299 ****       248.2500 362.7500 -75.0000 Du        
   1300 ****       248.2500 362.7500 -67.5000 Du        
   1301 ****       248.2500 362.7500 -67.2500 Du        
   1302 ****       248.2500 362.7500 -67.0000 Du        
   1303 ****       248.2500 362.7500 -66.7500 Du        
   1304 ****       248.2500 362.7500 -66.5000 Du        
   1305 ****       248.2500 362.7500 -66.2500 Du        
   1306 ****       248.2500 362.7500 -66.0000 Du        
   1307 ****       248.2500 362.7500 -65.7500 Du        
   1308 ****       248.2500 362.7500 -65.5000 Du        
   1309 ****       248.2500 362.7500 -65.2500 Du        
   1310 ****       248.2500 362.7500 -65.0000 Du        
   1311 ****       248.2500 362.7500 -64.7500 Du        
   1312 ****       248.2500 362.7500 -64.5000 Du        
   1313 ****       248.2500 362.7500 -64.2500 Du        
   1314 ****       248.2500 362.7500 -64.0000 Du        
   1315 ****       248.2500 362.7500 -63.7500 Du        
   1316 ****       248.2500 362.7500 -63.5000 Du        
   1317 ****       248.2500 362.7500 -63.2500 Du        
   1318 ****       248.2500 362.7500 -63.0000 Du        
   1319 ****       248.2500 362.7500 -62.7500 Du        
   1320 ****       248.2500 362.7500 -62.5000 Du        
   1321 ****       248.2500 362.7500 -62.2500 Du        
   1322 ****       248.2500 362.7500 -62.0000 Du        
   1323 ****       248.2500 362.7500 -61.7500 Du        
   1324 ****       248.2500 363.0000 -77.5000 Du        
   1325 ****       248.2500 363.0000 -77.2500 Du        
   1326 ****       248.2500 363.0000 -77.0000 Du        
   1327 ****       248.2500 363.0000 -76.7500 Du        
   1328 ****       248.2500 363.0000 -76.5000 Du        
   1329 ****       248.2500 363.0000 -76.2500 Du        
   1330 ****       248.2500 363.0000 -76.0000 Du        
   1331 ****       248.2500 363.0000 -75.7500 Du        
   1332 ****       248.2500 363.0000 -75.5000 Du        
   1333 ****       248.2500 363.0000 -75.2500 Du        
   1334 ****       248.2500 363.0000 -75.0000 Du        
   1335 ****       248.2500 363.0000 -67.5000 Du        
   1336 ****       248.2500 363.0000 -67.2500 Du        
   1337 ****       248.2500 363.0000 -67.0000 Du        
   1338 ****       248.2500 363.0000 -66.7500 Du        
   1339 ****       248.2500 363.0000 -66.5000 Du        
   1340 ****       248.2500 363.0000 -66.2500 Du        
   1341 ****       248.2500 363.0000 -66.0000 Du        
   1342 ****       248.2500 363.0000 -65.7500 Du        
   1343 ****       248.2500 363.0000 -65.5000 Du        
   1344 ****       248.2500 363.0000 -65.2500 Du        
   1345 ****       248.2500 363.0000 -65.0000 Du        
   1346 ****       248.2500 363.0000 -64.7500 Du        
   1347 ****       248.2500 363.0000 -64.5000 Du        
   1348 ****       248.2500 363.0000 -64.2500 Du        
   1349 ****       248.2500 363.0000 -64.0000 Du        
   1350 ****       248.2500 363.0000 -63.7500 Du        
   1351 ****       248.2500 363.0000 -63.5000 Du        
   1352 ****       248.2500 363.0000 -63.2500 Du        
   1353 ****       248.2500 363.0000 -63.0000 Du        
   1354 ****       248.2500 363.0000 -62.7500 Du        
   1355 ****       248.2500 363.0000 -62.5000 Du        
   1356 ****       248.2500 363.0000 -62.2500 Du        
   1357 ****       248.2500 363.0000 -62.0000 Du        
   1358 ****       248.2500 363.0000 -61.7500 Du        
   1359 ****       248.2500 363.2500 -77.5000 Du        
   1360 ****       248.2500 363.2500 -77.2500 Du        
   1361 ****       248.2500 363.2500 -77.0000 Du        
   1362 ****       248.2500 363.2500 -76.7500 Du        
   1363 ****       248.2500 363.2500 -76.5000 Du        
   1364 ****       248.2500 363.2500 -76.2500 Du        
   1365 ****       248.2500 363.2500 -76.0000 Du        
   1366 ****       248.2500 363.2500 -75.7500 Du        
   1367 ****       248.2500 363.2500 -75.2500 Du        
   1368 ****       248.2500 363.2500 -67.7500 Du        
   1369 ****       248.2500 363.2500 -67.5000 Du        
   1370 ****       248.2500 363.2500 -67.2500 Du        
   1371 ****       248.2500 363.2500 -67.0000 Du        
   1372 ****       248.2500 363.2500 -66.7500 Du        
   1373 ****       248.2500 363.2500 -66.5000 Du        
   1374 ****       248.2500 363.2500 -66.2500 Du        
   1375 ****       248.2500 363.2500 -66.0000 Du        
   1376 ****       248.2500 363.2500 -65.7500 Du        
   1377 ****       248.2500 363.2500 -65.5000 Du        
   1378 ****       248.2500 363.2500 -65.2500 Du        
   1379 ****       248.2500 363.2500 -65.0000 Du        
   1380 ****       248.2500 363.2500 -64.7500 Du        
   1381 ****       248.2500 363.2500 -64.5000 Du        
   1382 ****       248.2500 363.2500 -64.2500 Du        
   1383 ****       248.2500 363.2500 -64.0000 Du        
   1384 ****       248.2500 363.2500 -63.7500 Du        
   1385 ****       248.2500 363.2500 -63.5000 Du        
   1386 ****       248.2500 363.2500 -63.2500 Du        
   1387 ****       248.2500 363.2500 -63.0000 Du        
   1388 ****       248.2500 363.2500 -62.7500 Du        
   1389 ****       248.2500 363.2500 -62.5000 Du        
   1390 ****       248.2500 363.2500 -62.2500 Du        
   1391 ****       248.2500 363.2500 -62.0000 Du        
   1392 ****       248.2500 363.5000 -77.5000 Du        
   1393 ****       248.2500 363.5000 -77.2500 Du        
   1394 ****       248.2500 363.5000 -77.0000 Du        
   1395 ****       248.2500 363.5000 -76.7500 Du        
   1396 ****       248.2500 363.5000 -76.5000 Du        
   1397 ****       248.2500 363.5000 -76.2500 Du        
   1398 ****       248.2500 363.5000 -76.0000 Du        
   1399 ****       248.2500 363.5000 -75.7500 Du        
   1400 ****       248.2500 363.5000 -75.5000 Du        
   1401 ****       248.2500 363.5000 -67.7500 Du        
   1402 ****       248.2500 363.5000 -67.5000 Du        
   1403 ****       248.2500 363.5000 -67.2500 Du        
   1404 ****       248.2500 363.5000 -67.0000 Du        
   1405 ****       248.2500 363.5000 -66.7500 Du        
   1406 ****       248.2500 363.5000 -66.5000 Du        
   1407 ****       248.2500 363.5000 -66.2500 Du        
   1408 ****       248.2500 363.5000 -66.0000 Du        
   1409 ****       248.2500 363.5000 -65.7500 Du        
   1410 ****       248.2500 363.5000 -64.5000 Du        
   1411 ****       248.2500 363.5000 -64.2500 Du        
   1412 ****       248.2500 363.5000 -64.0000 Du        
   1413 ****       248.2500 363.5000 -63.7500 Du        
   1414 ****       248.2500 363.5000 -63.5000 Du        
   1415 ****       248.2500 363.7500 -77.2500 Du        
   1416 ****       248.2500 363.7500 -77.0000 Du        
   1417 ****       248.2500 363.7500 -76.7500 Du        
   1418 ****       248.2500 363.7500 -76.5000 Du        
   1419 ****       248.2500 363.7500 -76.2500 Du        
   1420 ****       248.2500 363.7500 -76.0000 Du        
   1421 ****       248.2500 363.7500 -75.7500 Du        
   1422 ****       248.2500 363.7500 -75.5000 Du        
   1423 ****       248.2500 363.7500 -75.2500 Du        
   1424 ****       248.2500 363.7500 -67.7500 Du        
   1425 ****       248.2500 363.7500 -67.5000 Du        
   1426 ****       248.2500 363.7500 -67.2500 Du        
   1427 ****       248.2500 363.7500 -67.0000 Du        
   1428 ****       248.2500 363.7500 -66.7500 Du        
   1429 ****       248.2500 363.7500 -66.5000 Du        
   1430 ****       248.2500 364.0000 -77.0000 Du        
   1431 ****       248.2500 364.0000 -76.7500 Du        
   1432 ****       248.2500 364.0000 -76.5000 Du        
   1433 ****       248.2500 364.0000 -76.2500 Du        
   1434 ****       248.2500 364.0000 -76.0000 Du        
   1435 ****       248.2500 364.0000 -75.7500 Du        
   1436 ****       248.2500 364.0000 -68.0000 Du        
   1437 ****       248.2500 364.0000 -67.7500 Du        
   1438 ****       248.2500 364.0000 -67.5000 Du        
   1439 ****       248.2500 364.0000 -67.2500 Du        
   1440 ****       248.2500 364.0000 -67.0000 Du        
   1441 ****       248.2500 364.2500 -76.0000 Du        
   1442 ****       248.2500 364.2500 -68.2500 Du        
   1443 ****       248.2500 364.2500 -68.0000 Du        
   1444 ****       248.2500 364.2500 -67.7500 Du        
   1445 ****       248.5000 357.5000 -75.5000 Du        
   1446 ****       248.5000 357.5000 -75.2500 Du        
   1447 ****       248.5000 357.5000 -75.0000 Du        
   1448 ****       248.5000 357.7500 -75.5000 Du        
   1449 ****       248.5000 357.7500 -75.2500 Du        
   1450 ****       248.5000 357.7500 -75.0000 Du        
   1451 ****       248.5000 357.7500 -74.7500 Du        
   1452 ****       248.5000 357.7500 -74.5000 Du        
   1453 ****       248.5000 357.7500 -74.2500 Du        
   1454 ****       248.5000 358.0000 -75.5000 Du        
   1455 ****       248.5000 358.0000 -75.2500 Du        
   1456 ****       248.5000 358.0000 -75.0000 Du        
   1457 ****       248.5000 358.0000 -74.7500 Du        
   1458 ****       248.5000 358.0000 -74.5000 Du        
   1459 ****       248.5000 358.0000 -74.2500 Du        
   1460 ****       248.5000 358.0000 -74.0000 Du        
   1461 ****       248.5000 358.2500 -75.5000 Du        
   1462 ****       248.5000 358.2500 -75.2500 Du        
   1463 ****       248.5000 358.2500 -75.0000 Du        
   1464 ****       248.5000 358.2500 -74.7500 Du        
   1465 ****       248.5000 358.2500 -74.5000 Du        
   1466 ****       248.5000 358.2500 -74.2500 Du        
   1467 ****       248.5000 358.5000 -75.5000 Du        
   1468 ****       248.5000 358.5000 -75.2500 Du        
   1469 ****       248.5000 358.5000 -75.0000 Du        
   1470 ****       248.5000 358.5000 -74.7500 Du        
   1471 ****       248.5000 358.5000 -74.5000 Du        
   1472 ****       248.5000 358.5000 -74.2500 Du        
   1473 ****       248.5000 358.7500 -75.5000 Du        
   1474 ****       248.5000 358.7500 -75.2500 Du        
   1475 ****       248.5000 358.7500 -75.0000 Du        
   1476 ****       248.5000 358.7500 -74.7500 Du        
   1477 ****       248.5000 358.7500 -74.5000 Du        
   1478 ****       248.5000 359.0000 -75.5000 Du        
   1479 ****       248.5000 359.0000 -75.2500 Du        
   1480 ****       248.5000 359.0000 -75.0000 Du        
   1481 ****       248.5000 359.0000 -74.7500 Du        
   1482 ****       248.5000 359.0000 -74.5000 Du        
   1483 ****       248.5000 359.2500 -75.5000 Du        
   1484 ****       248.5000 359.2500 -75.2500 Du        
   1485 ****       248.5000 359.2500 -75.0000 Du        
   1486 ****       248.5000 359.2500 -74.7500 Du        
   1487 ****       248.5000 359.2500 -74.5000 Du        
   1488 ****       248.5000 359.5000 -75.7500 Du        
   1489 ****       248.5000 359.5000 -75.5000 Du        
   1490 ****       248.5000 359.5000 -75.2500 Du        
   1491 ****       248.5000 359.5000 -75.0000 Du        
   1492 ****       248.5000 359.5000 -74.7500 Du        
   1493 ****       248.5000 359.7500 -75.7500 Du        
   1494 ****       248.5000 359.7500 -75.5000 Du        
   1495 ****       248.5000 359.7500 -75.2500 Du        
   1496 ****       248.5000 359.7500 -75.0000 Du        
   1497 ****       248.5000 359.7500 -74.7500 Du        
   1498 ****       248.5000 360.0000 -76.0000 Du        
   1499 ****       248.5000 360.0000 -75.7500 Du        
   1500 ****       248.5000 360.0000 -75.5000 Du        
   1501 ****       248.5000 360.0000 -75.2500 Du        
   1502 ****       248.5000 360.0000 -75.0000 Du        
   1503 ****       248.5000 360.0000 -74.7500 Du        
   1504 ****       248.5000 360.2500 -76.0000 Du        
   1505 ****       248.5000 360.2500 -75.7500 Du        
   1506 ****       248.5000 360.2500 -75.5000 Du        
   1507 ****       248.5000 360.2500 -75.2500 Du        
   1508 ****       248.5000 360.2500 -75.0000 Du        
   1509 ****       248.5000 360.2500 -74.7500 Du        
   1510 ****       248.5000 360.5000 -76.2500 Du        
   1511 ****       248.5000 360.5000 -76.0000 Du        
   1512 ****       248.5000 360.5000 -75.7500 Du        
   1513 ****       248.5000 360.5000 -75.5000 Du        
   1514 ****       248.5000 360.5000 -75.2500 Du        
   1515 ****       248.5000 360.5000 -75.0000 Du        
   1516 ****       248.5000 360.5000 -74.7500 Du        
   1517 ****       248.5000 360.7500 -76.5000 Du        
   1518 ****       248.5000 360.7500 -76.2500 Du        
   1519 ****       248.5000 360.7500 -76.0000 Du        
   1520 ****       248.5000 360.7500 -75.7500 Du        
   1521 ****       248.5000 360.7500 -75.5000 Du        
   1522 ****       248.5000 360.7500 -75.2500 Du        
   1523 ****       248.5000 360.7500 -75.0000 Du        
   1524 ****       248.5000 360.7500 -74.7500 Du        
   1525 ****       248.5000 361.0000 -76.7500 Du        
   1526 ****       248.5000 361.0000 -76.5000 Du        
   1527 ****       248.5000 361.0000 -76.2500 Du        
   1528 ****       248.5000 361.0000 -76.0000 Du        
   1529 ****       248.5000 361.0000 -75.7500 Du        
   1530 ****       248.5000 361.0000 -75.5000 Du        
   1531 ****       248.5000 361.0000 -75.2500 Du        
   1532 ****       248.5000 361.0000 -75.0000 Du        
   1533 ****       248.5000 361.0000 -74.7500 Du        
   1534 ****       248.5000 361.2500 -77.0000 Du        
   1535 ****       248.5000 361.2500 -76.7500 Du        
   1536 ****       248.5000 361.2500 -76.5000 Du        
   1537 ****       248.5000 361.2500 -76.2500 Du        
   1538 ****       248.5000 361.2500 -76.0000 Du        
   1539 ****       248.5000 361.2500 -75.7500 Du        
   1540 ****       248.5000 361.2500 -75.5000 Du        
   1541 ****       248.5000 361.2500 -75.2500 Du        
   1542 ****       248.5000 361.2500 -75.0000 Du        
   1543 ****       248.5000 361.2500 -74.7500 Du        
   1544 ****       248.5000 361.2500 -74.5000 Du        
   1545 ****       248.5000 361.5000 -77.0000 Du        
   1546 ****       248.5000 361.5000 -76.7500 Du        
   1547 ****       248.5000 361.5000 -76.5000 Du        
   1548 ****       248.5000 361.5000 -76.2500 Du        
   1549 ****       248.5000 361.5000 -76.0000 Du        
   1550 ****       248.5000 361.5000 -75.7500 Du        
   1551 ****       248.5000 361.5000 -75.5000 Du        
   1552 ****       248.5000 361.5000 -75.2500 Du        
   1553 ****       248.5000 361.5000 -75.0000 Du        
   1554 ****       248.5000 361.5000 -74.7500 Du        
   1555 ****       248.5000 361.5000 -74.5000 Du        
   1556 ****       248.5000 361.7500 -77.2500 Du        
   1557 ****       248.5000 361.7500 -77.0000 Du        
   1558 ****       248.5000 361.7500 -76.7500 Du        
   1559 ****       248.5000 361.7500 -76.5000 Du        
   1560 ****       248.5000 361.7500 -76.2500 Du        
   1561 ****       248.5000 361.7500 -76.0000 Du        
   1562 ****       248.5000 361.7500 -75.7500 Du        
   1563 ****       248.5000 361.7500 -75.5000 Du        
   1564 ****       248.5000 361.7500 -75.2500 Du        
   1565 ****       248.5000 361.7500 -75.0000 Du        
   1566 ****       248.5000 361.7500 -74.7500 Du        
   1567 ****       248.5000 361.7500 -74.5000 Du        
   1568 ****       248.5000 361.7500 -62.5000 Du        
   1569 ****       248.5000 361.7500 -62.2500 Du        
   1570 ****       248.5000 362.0000 -77.5000 Du        
   1571 ****       248.5000 362.0000 -77.2500 Du        
   1572 ****       248.5000 362.0000 -77.0000 Du        
   1573 ****       248.5000 362.0000 -76.7500 Du        
   1574 ****       248.5000 362.0000 -76.5000 Du        
   1575 ****       248.5000 362.0000 -76.2500 Du        
   1576 ****       248.5000 362.0000 -76.0000 Du        
   1577 ****       248.5000 362.0000 -75.7500 Du        
   1578 ****       248.5000 362.0000 -75.5000 Du        
   1579 ****       248.5000 362.0000 -75.2500 Du        
   1580 ****       248.5000 362.0000 -75.0000 Du        
   1581 ****       248.5000 362.0000 -74.7500 Du        
   1582 ****       248.5000 362.0000 -74.5000 Du        
   1583 ****       248.5000 362.0000 -65.7500 Du        
   1584 ****       248.5000 362.0000 -65.5000 Du        
   1585 ****       248.5000 362.0000 -65.2500 Du        
   1586 ****       248.5000 362.0000 -65.0000 Du        
   1587 ****       248.5000 362.0000 -64.7500 Du        
   1588 ****       248.5000 362.0000 -64.5000 Du        
   1589 ****       248.5000 362.0000 -64.2500 Du        
   1590 ****       248.5000 362.0000 -64.0000 Du        
   1591 ****       248.5000 362.0000 -63.7500 Du        
   1592 ****       248.5000 362.0000 -63.5000 Du        
   1593 ****       248.5000 362.0000 -63.2500 Du        
   1594 ****       248.5000 362.0000 -63.0000 Du        
   1595 ****       248.5000 362.0000 -62.7500 Du        
   1596 ****       248.5000 362.0000 -62.5000 Du        
   1597 ****       248.5000 362.0000 -62.2500 Du        
   1598 ****       248.5000 362.0000 -62.0000 Du        
   1599 ****       248.5000 362.0000 -61.7500 Du        
   1600 ****       248.5000 362.0000 -61.5000 Du        
   1601 ****       248.5000 362.2500 -77.5000 Du        
   1602 ****       248.5000 362.2500 -77.2500 Du        
   1603 ****       248.5000 362.2500 -77.0000 Du        
   1604 ****       248.5000 362.2500 -76.7500 Du        
   1605 ****       248.5000 362.2500 -76.5000 Du        
   1606 ****       248.5000 362.2500 -76.2500 Du        
   1607 ****       248.5000 362.2500 -76.0000 Du        
   1608 ****       248.5000 362.2500 -75.7500 Du        
   1609 ****       248.5000 362.2500 -75.5000 Du        
   1610 ****       248.5000 362.2500 -75.2500 Du        
   1611 ****       248.5000 362.2500 -75.0000 Du        
   1612 ****       248.5000 362.2500 -74.7500 Du        
   1613 ****       248.5000 362.2500 -66.5000 Du        
   1614 ****       248.5000 362.2500 -66.2500 Du        
   1615 ****       248.5000 362.2500 -66.0000 Du        
   1616 ****       248.5000 362.2500 -65.7500 Du        
   1617 ****       248.5000 362.2500 -65.5000 Du        
   1618 ****       248.5000 362.2500 -65.2500 Du        
   1619 ****       248.5000 362.2500 -65.0000 Du        
   1620 ****       248.5000 362.2500 -64.7500 Du        
   1621 ****       248.5000 362.2500 -64.5000 Du        
   1622 ****       248.5000 362.2500 -64.2500 Du        
   1623 ****       248.5000 362.2500 -64.0000 Du        
   1624 ****       248.5000 362.2500 -63.7500 Du        
   1625 ****       248.5000 362.2500 -63.5000 Du        
   1626 ****       248.5000 362.2500 -63.2500 Du        
   1627 ****       248.5000 362.2500 -63.0000 Du        
   1628 ****       248.5000 362.2500 -62.7500 Du        
   1629 ****       248.5000 362.2500 -62.5000 Du        
   1630 ****       248.5000 362.2500 -62.2500 Du        
   1631 ****       248.5000 362.2500 -62.0000 Du        
   1632 ****       248.5000 362.2500 -61.7500 Du        
   1633 ****       248.5000 362.2500 -61.5000 Du        
   1634 ****       248.5000 362.5000 -77.5000 Du        
   1635 ****       248.5000 362.5000 -77.2500 Du        
   1636 ****       248.5000 362.5000 -77.0000 Du        
   1637 ****       248.5000 362.5000 -76.7500 Du        
   1638 ****       248.5000 362.5000 -76.5000 Du        
   1639 ****       248.5000 362.5000 -76.2500 Du        
   1640 ****       248.5000 362.5000 -76.0000 Du        
   1641 ****       248.5000 362.5000 -75.7500 Du        
   1642 ****       248.5000 362.5000 -75.5000 Du        
   1643 ****       248.5000 362.5000 -75.2500 Du        
   1644 ****       248.5000 362.5000 -75.0000 Du        
   1645 ****       248.5000 362.5000 -74.7500 Du        
   1646 ****       248.5000 362.5000 -67.0000 Du        
   1647 ****       248.5000 362.5000 -66.7500 Du        
   1648 ****       248.5000 362.5000 -66.5000 Du        
   1649 ****       248.5000 362.5000 -66.2500 Du        
   1650 ****       248.5000 362.5000 -66.0000 Du        
   1651 ****       248.5000 362.5000 -65.7500 Du        
   1652 ****       248.5000 362.5000 -65.5000 Du        
   1653 ****       248.5000 362.5000 -65.2500 Du        
   1654 ****       248.5000 362.5000 -65.0000 Du        
   1655 ****       248.5000 362.5000 -64.7500 Du        
   1656 ****       248.5000 362.5000 -64.5000 Du        
   1657 ****       248.5000 362.5000 -64.2500 Du        
   1658 ****       248.5000 362.5000 -64.0000 Du        
   1659 ****       248.5000 362.5000 -63.7500 Du        
   1660 ****       248.5000 362.5000 -63.5000 Du        
   1661 ****       248.5000 362.5000 -63.2500 Du        
   1662 ****       248.5000 362.5000 -63.0000 Du        
   1663 ****       248.5000 362.5000 -62.7500 Du        
   1664 ****       248.5000 362.5000 -62.5000 Du        
   1665 ****       248.5000 362.5000 -62.2500 Du        
   1666 ****       248.5000 362.5000 -62.0000 Du        
   1667 ****       248.5000 362.5000 -61.7500 Du        
   1668 ****       248.5000 362.7500 -77.5000 Du        
   1669 ****       248.5000 362.7500 -77.2500 Du        
   1670 ****       248.5000 362.7500 -77.0000 Du        
   1671 ****       248.5000 362.7500 -76.7500 Du        
   1672 ****       248.5000 362.7500 -76.5000 Du        
   1673 ****       248.5000 362.7500 -76.2500 Du        
   1674 ****       248.5000 362.7500 -76.0000 Du        
   1675 ****       248.5000 362.7500 -75.7500 Du        
   1676 ****       248.5000 362.7500 -75.5000 Du        
   1677 ****       248.5000 362.7500 -75.2500 Du        
   1678 ****       248.5000 362.7500 -75.0000 Du        
   1679 ****       248.5000 362.7500 -74.7500 Du        
   1680 ****       248.5000 362.7500 -67.2500 Du        
   1681 ****       248.5000 362.7500 -67.0000 Du        
   1682 ****       248.5000 362.7500 -66.7500 Du        
   1683 ****       248.5000 362.7500 -66.5000 Du        
   1684 ****       248.5000 362.7500 -66.2500 Du        
   1685 ****       248.5000 362.7500 -66.0000 Du        
   1686 ****       248.5000 362.7500 -65.7500 Du        
   1687 ****       248.5000 362.7500 -65.5000 Du        
   1688 ****       248.5000 362.7500 -65.2500 Du        
   1689 ****       248.5000 362.7500 -65.0000 Du        
   1690 ****       248.5000 362.7500 -64.7500 Du        
   1691 ****       248.5000 362.7500 -64.5000 Du        
   1692 ****       248.5000 362.7500 -64.2500 Du        
   1693 ****       248.5000 362.7500 -64.0000 Du        
   1694 ****       248.5000 362.7500 -63.7500 Du        
   1695 ****       248.5000 362.7500 -63.5000 Du        
   1696 ****       248.5000 362.7500 -63.2500 Du        
   1697 ****       248.5000 362.7500 -63.0000 Du        
   1698 ****       248.5000 362.7500 -62.7500 Du        
   1699 ****       248.5000 362.7500 -62.5000 Du        
   1700 ****       248.5000 362.7500 -62.2500 Du        
   1701 ****       248.5000 362.7500 -62.0000 Du        
   1702 ****       248.5000 362.7500 -61.7500 Du        
   1703 ****       248.5000 363.0000 -77.5000 Du        
   1704 ****       248.5000 363.0000 -77.2500 Du        
   1705 ****       248.5000 363.0000 -77.0000 Du        
   1706 ****       248.5000 363.0000 -76.7500 Du        
   1707 ****       248.5000 363.0000 -76.5000 Du        
   1708 ****       248.5000 363.0000 -76.2500 Du        
   1709 ****       248.5000 363.0000 -76.0000 Du        
   1710 ****       248.5000 363.0000 -75.7500 Du        
   1711 ****       248.5000 363.0000 -75.5000 Du        
   1712 ****       248.5000 363.0000 -75.2500 Du        
   1713 ****       248.5000 363.0000 -75.0000 Du        
   1714 ****       248.5000 363.0000 -67.5000 Du        
   1715 ****       248.5000 363.0000 -67.2500 Du        
   1716 ****       248.5000 363.0000 -67.0000 Du        
   1717 ****       248.5000 363.0000 -66.7500 Du        
   1718 ****       248.5000 363.0000 -66.5000 Du        
   1719 ****       248.5000 363.0000 -66.2500 Du        
   1720 ****       248.5000 363.0000 -66.0000 Du        
   1721 ****       248.5000 363.0000 -65.7500 Du        
   1722 ****       248.5000 363.0000 -65.5000 Du        
   1723 ****       248.5000 363.0000 -65.2500 Du        
   1724 ****       248.5000 363.0000 -65.0000 Du        
   1725 ****       248.5000 363.0000 -64.7500 Du        
   1726 ****       248.5000 363.0000 -64.5000 Du        
   1727 ****       248.5000 363.0000 -64.2500 Du        
   1728 ****       248.5000 363.0000 -64.0000 Du        
   1729 ****       248.5000 363.0000 -63.7500 Du        
   1730 ****       248.5000 363.0000 -63.5000 Du        
   1731 ****       248.5000 363.0000 -63.2500 Du        
   1732 ****       248.5000 363.0000 -63.0000 Du        
   1733 ****       248.5000 363.0000 -62.7500 Du        
   1734 ****       248.5000 363.0000 -62.5000 Du        
   1735 ****       248.5000 363.0000 -62.2500 Du        
   1736 ****       248.5000 363.0000 -62.0000 Du        
   1737 ****       248.5000 363.0000 -61.7500 Du        
   1738 ****       248.5000 363.2500 -77.5000 Du        
   1739 ****       248.5000 363.2500 -77.2500 Du        
   1740 ****       248.5000 363.2500 -77.0000 Du        
   1741 ****       248.5000 363.2500 -76.7500 Du        
   1742 ****       248.5000 363.2500 -76.5000 Du        
   1743 ****       248.5000 363.2500 -76.2500 Du        
   1744 ****       248.5000 363.2500 -76.0000 Du        
   1745 ****       248.5000 363.2500 -75.7500 Du        
   1746 ****       248.5000 363.2500 -75.5000 Du        
   1747 ****       248.5000 363.2500 -75.2500 Du        
   1748 ****       248.5000 363.2500 -75.0000 Du        
   1749 ****       248.5000 363.2500 -67.7500 Du        
   1750 ****       248.5000 363.2500 -67.5000 Du        
   1751 ****       248.5000 363.2500 -67.2500 Du        
   1752 ****       248.5000 363.2500 -67.0000 Du        
   1753 ****       248.5000 363.2500 -66.7500 Du        
   1754 ****       248.5000 363.2500 -66.5000 Du        
   1755 ****       248.5000 363.2500 -66.2500 Du        
   1756 ****       248.5000 363.2500 -66.0000 Du        
   1757 ****       248.5000 363.2500 -65.7500 Du        
   1758 ****       248.5000 363.2500 -65.5000 Du        
   1759 ****       248.5000 363.2500 -65.2500 Du        
   1760 ****       248.5000 363.2500 -65.0000 Du        
   1761 ****       248.5000 363.2500 -64.7500 Du        
   1762 ****       248.5000 363.2500 -64.5000 Du        
   1763 ****       248.5000 363.2500 -64.2500 Du        
   1764 ****       248.5000 363.2500 -64.0000 Du        
   1765 ****       248.5000 363.2500 -63.7500 Du        
   1766 ****       248.5000 363.2500 -63.5000 Du        
   1767 ****       248.5000 363.2500 -63.2500 Du        
   1768 ****       248.5000 363.2500 -63.0000 Du        
   1769 ****       248.5000 363.2500 -62.7500 Du        
   1770 ****       248.5000 363.2500 -62.5000 Du        
   1771 ****       248.5000 363.2500 -62.2500 Du        
   1772 ****       248.5000 363.5000 -77.5000 Du        
   1773 ****       248.5000 363.5000 -77.2500 Du        
   1774 ****       248.5000 363.5000 -77.0000 Du        
   1775 ****       248.5000 363.5000 -76.7500 Du        
   1776 ****       248.5000 363.5000 -76.5000 Du        
   1777 ****       248.5000 363.5000 -76.2500 Du        
   1778 ****       248.5000 363.5000 -76.0000 Du        
   1779 ****       248.5000 363.5000 -75.7500 Du        
   1780 ****       248.5000 363.5000 -75.5000 Du        
   1781 ****       248.5000 363.5000 -75.2500 Du        
   1782 ****       248.5000 363.5000 -75.0000 Du        
   1783 ****       248.5000 363.5000 -67.7500 Du        
   1784 ****       248.5000 363.5000 -67.5000 Du        
   1785 ****       248.5000 363.5000 -67.2500 Du        
   1786 ****       248.5000 363.5000 -67.0000 Du        
   1787 ****       248.5000 363.5000 -66.7500 Du        
   1788 ****       248.5000 363.5000 -66.5000 Du        
   1789 ****       248.5000 363.5000 -66.2500 Du        
   1790 ****       248.5000 363.7500 -77.5000 Du        
   1791 ****       248.5000 363.7500 -77.2500 Du        
   1792 ****       248.5000 363.7500 -77.0000 Du        
   1793 ****       248.5000 363.7500 -76.7500 Du        
   1794 ****       248.5000 363.7500 -76.5000 Du        
   1795 ****       248.5000 363.7500 -76.2500 Du        
   1796 ****       248.5000 363.7500 -76.0000 Du        
   1797 ****       248.5000 363.7500 -75.7500 Du        
   1798 ****       248.5000 363.7500 -75.5000 Du        
   1799 ****       248.5000 363.7500 -75.2500 Du        
   1800 ****       248.5000 363.7500 -75.0000 Du        
   1801 ****       248.5000 363.7500 -68.0000 Du        
   1802 ****       248.5000 363.7500 -67.7500 Du        
   1803 ****       248.5000 363.7500 -67.5000 Du        
   1804 ****       248.5000 363.7500 -67.2500 Du        
   1805 ****       248.5000 363.7500 -67.0000 Du        
   1806 ****       248.5000 364.0000 -77.2500 Du        
   1807 ****       248.5000 364.0000 -77.0000 Du        
   1808 ****       248.5000 364.0000 -76.7500 Du        
   1809 ****       248.5000 364.0000 -76.5000 Du        
   1810 ****       248.5000 364.0000 -76.2500 Du        
   1811 ****       248.5000 364.0000 -76.0000 Du        
   1812 ****       248.5000 364.0000 -75.7500 Du        
   1813 ****       248.5000 364.0000 -75.5000 Du        
   1814 ****       248.5000 364.0000 -75.2500 Du        
   1815 ****       248.5000 364.0000 -75.0000 Du        
   1816 ****       248.5000 364.0000 -68.5000 Du        
   1817 ****       248.5000 364.0000 -68.2500 Du        
   1818 ****       248.5000 364.0000 -68.0000 Du        
   1819 ****       248.5000 364.0000 -67.7500 Du        
   1820 ****       248.5000 364.0000 -67.5000 Du        
   1821 ****       248.5000 364.0000 -67.2500 Du        
   1822 ****       248.5000 364.2500 -76.7500 Du        
   1823 ****       248.5000 364.2500 -76.5000 Du        
   1824 ****       248.5000 364.2500 -76.2500 Du        
   1825 ****       248.5000 364.2500 -76.0000 Du        
   1826 ****       248.5000 364.2500 -75.7500 Du        
   1827 ****       248.5000 364.2500 -75.5000 Du        
   1828 ****       248.5000 364.2500 -75.2500 Du        
   1829 ****       248.5000 364.2500 -75.0000 Du        
   1830 ****       248.5000 364.2500 -68.7500 Du        
   1831 ****       248.5000 364.2500 -68.5000 Du        
   1832 ****       248.5000 364.2500 -68.2500 Du        
   1833 ****       248.5000 364.2500 -68.0000 Du        
   1834 ****       248.5000 364.2500 -67.7500 Du        
   1835 ****       248.5000 364.2500 -67.5000 Du        
   1836 ****       248.5000 364.5000 -76.2500 Du        
   1837 ****       248.5000 364.5000 -76.0000 Du        
   1838 ****       248.5000 364.5000 -75.7500 Du        
   1839 ****       248.5000 364.5000 -75.5000 Du        
   1840 ****       248.5000 364.5000 -75.2500 Du        
   1841 ****       248.5000 364.5000 -75.0000 Du        
   1842 ****       248.5000 364.5000 -69.0000 Du        
   1843 ****       248.5000 364.5000 -68.7500 Du        
   1844 ****       248.5000 364.5000 -68.2500 Du        
   1845 ****       248.5000 364.5000 -68.0000 Du        
   1846 ****       248.5000 364.7500 -75.7500 Du        
   1847 ****       248.5000 364.7500 -75.5000 Du        
   1848 ****       248.5000 364.7500 -75.2500 Du        
   1849 ****       248.5000 364.7500 -69.2500 Du        
   1850 ****       248.5000 364.7500 -69.0000 Du        
   1851 ****       248.7500 357.5000 -75.2500 Du        
   1852 ****       248.7500 357.7500 -75.5000 Du        
   1853 ****       248.7500 357.7500 -75.2500 Du        
   1854 ****       248.7500 357.7500 -75.0000 Du        
   1855 ****       248.7500 357.7500 -74.7500 Du        
   1856 ****       248.7500 357.7500 -74.5000 Du        
   1857 ****       248.7500 358.0000 -75.5000 Du        
   1858 ****       248.7500 358.0000 -75.2500 Du        
   1859 ****       248.7500 358.0000 -75.0000 Du        
   1860 ****       248.7500 358.0000 -74.7500 Du        
   1861 ****       248.7500 358.0000 -74.5000 Du        
   1862 ****       248.7500 358.0000 -74.2500 Du        
   1863 ****       248.7500 358.2500 -75.5000 Du        
   1864 ****       248.7500 358.2500 -75.2500 Du        
   1865 ****       248.7500 358.2500 -75.0000 Du        
   1866 ****       248.7500 358.2500 -74.7500 Du        
   1867 ****       248.7500 358.2500 -74.5000 Du        
   1868 ****       248.7500 358.2500 -74.2500 Du        
   1869 ****       248.7500 358.5000 -75.5000 Du        
   1870 ****       248.7500 358.5000 -75.2500 Du        
   1871 ****       248.7500 358.5000 -75.0000 Du        
   1872 ****       248.7500 358.5000 -74.7500 Du        
   1873 ****       248.7500 358.5000 -74.5000 Du        
   1874 ****       248.7500 358.7500 -75.5000 Du        
   1875 ****       248.7500 358.7500 -75.2500 Du        
   1876 ****       248.7500 358.7500 -75.0000 Du        
   1877 ****       248.7500 358.7500 -74.7500 Du        
   1878 ****       248.7500 358.7500 -74.5000 Du        
   1879 ****       248.7500 359.0000 -75.2500 Du        
   1880 ****       248.7500 359.0000 -75.0000 Du        
   1881 ****       248.7500 359.0000 -74.7500 Du        
   1882 ****       248.7500 359.2500 -75.5000 Du        
   1883 ****       248.7500 359.2500 -75.2500 Du        
   1884 ****       248.7500 359.2500 -75.0000 Du        
   1885 ****       248.7500 359.2500 -74.7500 Du        
   1886 ****       248.7500 359.5000 -75.5000 Du        
   1887 ****       248.7500 359.5000 -75.2500 Du        
   1888 ****       248.7500 359.5000 -75.0000 Du        
   1889 ****       248.7500 359.7500 -75.5000 Du        
   1890 ****       248.7500 359.7500 -75.2500 Du        
   1891 ****       248.7500 359.7500 -75.0000 Du        
   1892 ****       248.7500 360.0000 -75.7500 Du        
   1893 ****       248.7500 360.0000 -75.5000 Du        
   1894 ****       248.7500 360.0000 -75.2500 Du        
   1895 ****       248.7500 360.0000 -75.0000 Du        
   1896 ****       248.7500 360.2500 -75.7500 Du        
   1897 ****       248.7500 360.2500 -75.5000 Du        
   1898 ****       248.7500 360.2500 -75.2500 Du        
   1899 ****       248.7500 360.2500 -75.0000 Du        
   1900 ****       248.7500 360.2500 -74.7500 Du        
   1901 ****       248.7500 360.5000 -76.0000 Du        
   1902 ****       248.7500 360.5000 -75.7500 Du        
   1903 ****       248.7500 360.5000 -75.5000 Du        
   1904 ****       248.7500 360.5000 -75.2500 Du        
   1905 ****       248.7500 360.5000 -75.0000 Du        
   1906 ****       248.7500 360.7500 -76.2500 Du        
   1907 ****       248.7500 360.7500 -76.0000 Du        
   1908 ****       248.7500 360.7500 -75.7500 Du        
   1909 ****       248.7500 360.7500 -75.5000 Du        
   1910 ****       248.7500 360.7500 -75.2500 Du        
   1911 ****       248.7500 360.7500 -75.0000 Du        
   1912 ****       248.7500 360.7500 -74.7500 Du        
   1913 ****       248.7500 361.0000 -76.5000 Du        
   1914 ****       248.7500 361.0000 -76.2500 Du        
   1915 ****       248.7500 361.0000 -76.0000 Du        
   1916 ****       248.7500 361.0000 -75.7500 Du        
   1917 ****       248.7500 361.0000 -75.5000 Du        
   1918 ****       248.7500 361.0000 -75.2500 Du        
   1919 ****       248.7500 361.0000 -75.0000 Du        
   1920 ****       248.7500 361.0000 -74.7500 Du        
   1921 ****       248.7500 361.2500 -76.5000 Du        
   1922 ****       248.7500 361.2500 -76.2500 Du        
   1923 ****       248.7500 361.2500 -76.0000 Du        
   1924 ****       248.7500 361.2500 -75.7500 Du        
   1925 ****       248.7500 361.2500 -75.5000 Du        
   1926 ****       248.7500 361.2500 -75.2500 Du        
   1927 ****       248.7500 361.2500 -75.0000 Du        
   1928 ****       248.7500 361.2500 -74.7500 Du        
   1929 ****       248.7500 361.5000 -76.7500 Du        
   1930 ****       248.7500 361.5000 -76.5000 Du        
   1931 ****       248.7500 361.5000 -76.2500 Du        
   1932 ****       248.7500 361.5000 -76.0000 Du        
   1933 ****       248.7500 361.5000 -75.7500 Du        
   1934 ****       248.7500 361.5000 -75.5000 Du        
   1935 ****       248.7500 361.5000 -75.2500 Du        
   1936 ****       248.7500 361.5000 -75.0000 Du        
   1937 ****       248.7500 361.5000 -74.7500 Du        
   1938 ****       248.7500 361.5000 -62.5000 Du        
   1939 ****       248.7500 361.5000 -62.2500 Du        
   1940 ****       248.7500 361.5000 -62.0000 Du        
   1941 ****       248.7500 361.7500 -77.0000 Du        
   1942 ****       248.7500 361.7500 -76.7500 Du        
   1943 ****       248.7500 361.7500 -76.5000 Du        
   1944 ****       248.7500 361.7500 -76.2500 Du        
   1945 ****       248.7500 361.7500 -76.0000 Du        
   1946 ****       248.7500 361.7500 -75.7500 Du        
   1947 ****       248.7500 361.7500 -75.5000 Du        
   1948 ****       248.7500 361.7500 -75.2500 Du        
   1949 ****       248.7500 361.7500 -75.0000 Du        
   1950 ****       248.7500 361.7500 -74.7500 Du        
   1951 ****       248.7500 361.7500 -64.0000 Du        
   1952 ****       248.7500 361.7500 -63.7500 Du        
   1953 ****       248.7500 361.7500 -63.5000 Du        
   1954 ****       248.7500 361.7500 -63.2500 Du        
   1955 ****       248.7500 361.7500 -63.0000 Du        
   1956 ****       248.7500 361.7500 -62.7500 Du        
   1957 ****       248.7500 361.7500 -62.5000 Du        
   1958 ****       248.7500 361.7500 -62.2500 Du        
   1959 ****       248.7500 361.7500 -62.0000 Du        
   1960 ****       248.7500 361.7500 -61.7500 Du        
   1961 ****       248.7500 362.0000 -77.2500 Du        
   1962 ****       248.7500 362.0000 -77.0000 Du        
   1963 ****       248.7500 362.0000 -76.7500 Du        
   1964 ****       248.7500 362.0000 -76.5000 Du        
   1965 ****       248.7500 362.0000 -76.2500 Du        
   1966 ****       248.7500 362.0000 -76.0000 Du        
   1967 ****       248.7500 362.0000 -75.7500 Du        
   1968 ****       248.7500 362.0000 -75.5000 Du        
   1969 ****       248.7500 362.0000 -75.2500 Du        
   1970 ****       248.7500 362.0000 -75.0000 Du        
   1971 ****       248.7500 362.0000 -74.7500 Du        
   1972 ****       248.7500 362.0000 -65.2500 Du        
   1973 ****       248.7500 362.0000 -65.0000 Du        
   1974 ****       248.7500 362.0000 -64.7500 Du        
   1975 ****       248.7500 362.0000 -64.5000 Du        
   1976 ****       248.7500 362.0000 -64.2500 Du        
   1977 ****       248.7500 362.0000 -64.0000 Du        
   1978 ****       248.7500 362.0000 -63.7500 Du        
   1979 ****       248.7500 362.0000 -63.5000 Du        
   1980 ****       248.7500 362.0000 -63.2500 Du        
   1981 ****       248.7500 362.0000 -63.0000 Du        
   1982 ****       248.7500 362.0000 -62.7500 Du        
   1983 ****       248.7500 362.0000 -62.5000 Du        
   1984 ****       248.7500 362.0000 -62.2500 Du        
   1985 ****       248.7500 362.0000 -62.0000 Du        
   1986 ****       248.7500 362.0000 -61.7500 Du        
   1987 ****       248.7500 362.2500 -77.2500 Du        
   1988 ****       248.7500 362.2500 -77.0000 Du        
   1989 ****       248.7500 362.2500 -76.7500 Du        
   1990 ****       248.7500 362.2500 -76.5000 Du        
   1991 ****       248.7500 362.2500 -76.2500 Du        
   1992 ****       248.7500 362.2500 -76.0000 Du        
   1993 ****       248.7500 362.2500 -75.7500 Du        
   1994 ****       248.7500 362.2500 -75.5000 Du        
   1995 ****       248.7500 362.2500 -75.2500 Du        
   1996 ****       248.7500 362.2500 -75.0000 Du        
   1997 ****       248.7500 362.2500 -74.7500 Du        
   1998 ****       248.7500 362.2500 -65.5000 Du        
   1999 ****       248.7500 362.2500 -65.2500 Du        
   2000 ****       248.7500 362.2500 -65.0000 Du        
   2001 ****       248.7500 362.2500 -64.7500 Du        
   2002 ****       248.7500 362.2500 -64.5000 Du        
   2003 ****       248.7500 362.2500 -64.2500 Du        
   2004 ****       248.7500 362.2500 -64.0000 Du        
   2005 ****       248.7500 362.2500 -63.7500 Du        
   2006 ****       248.7500 362.2500 -63.5000 Du        
   2007 ****       248.7500 362.2500 -63.2500 Du        
   2008 ****       248.7500 362.2500 -63.0000 Du        
   2009 ****       248.7500 362.2500 -62.7500 Du        
   2010 ****       248.7500 362.2500 -62.5000 Du        
   2011 ****       248.7500 362.2500 -62.2500 Du        
   2012 ****       248.7500 362.2500 -62.0000 Du        
   2013 ****       248.7500 362.2500 -61.7500 Du        
   2014 ****       248.7500 362.5000 -77.5000 Du        
   2015 ****       248.7500 362.5000 -77.2500 Du        
   2016 ****       248.7500 362.5000 -77.0000 Du        
   2017 ****       248.7500 362.5000 -76.7500 Du        
   2018 ****       248.7500 362.5000 -76.5000 Du        
   2019 ****       248.7500 362.5000 -76.2500 Du        
   2020 ****       248.7500 362.5000 -76.0000 Du        
   2021 ****       248.7500 362.5000 -75.7500 Du        
   2022 ****       248.7500 362.5000 -75.5000 Du        
   2023 ****       248.7500 362.5000 -75.2500 Du        
   2024 ****       248.7500 362.5000 -75.0000 Du        
   2025 ****       248.7500 362.5000 -66.0000 Du        
   2026 ****       248.7500 362.5000 -65.7500 Du        
   2027 ****       248.7500 362.5000 -65.5000 Du        
   2028 ****       248.7500 362.5000 -65.2500 Du        
   2029 ****       248.7500 362.5000 -65.0000 Du        
   2030 ****       248.7500 362.5000 -64.7500 Du        
   2031 ****       248.7500 362.5000 -64.5000 Du        
   2032 ****       248.7500 362.5000 -64.2500 Du        
   2033 ****       248.7500 362.5000 -64.0000 Du        
   2034 ****       248.7500 362.5000 -63.7500 Du        
   2035 ****       248.7500 362.5000 -63.5000 Du        
   2036 ****       248.7500 362.5000 -63.2500 Du        
   2037 ****       248.7500 362.5000 -63.0000 Du        
   2038 ****       248.7500 362.5000 -62.7500 Du        
   2039 ****       248.7500 362.5000 -62.5000 Du        
   2040 ****       248.7500 362.5000 -62.2500 Du        
   2041 ****       248.7500 362.5000 -62.0000 Du        
   2042 ****       248.7500 362.5000 -61.7500 Du        
   2043 ****       248.7500 362.7500 -77.5000 Du        
   2044 ****       248.7500 362.7500 -77.2500 Du        
   2045 ****       248.7500 362.7500 -77.0000 Du        
   2046 ****       248.7500 362.7500 -76.7500 Du        
   2047 ****       248.7500 362.7500 -76.5000 Du        
   2048 ****       248.7500 362.7500 -76.2500 Du        
   2049 ****       248.7500 362.7500 -76.0000 Du        
   2050 ****       248.7500 362.7500 -75.7500 Du        
   2051 ****       248.7500 362.7500 -75.5000 Du        
   2052 ****       248.7500 362.7500 -75.2500 Du        
   2053 ****       248.7500 362.7500 -75.0000 Du        
   2054 ****       248.7500 362.7500 -66.7500 Du        
   2055 ****       248.7500 362.7500 -66.5000 Du        
   2056 ****       248.7500 362.7500 -66.2500 Du        
   2057 ****       248.7500 362.7500 -66.0000 Du        
   2058 ****       248.7500 362.7500 -65.7500 Du        
   2059 ****       248.7500 362.7500 -65.5000 Du        
   2060 ****       248.7500 362.7500 -65.2500 Du        
   2061 ****       248.7500 362.7500 -65.0000 Du        
   2062 ****       248.7500 362.7500 -64.7500 Du        
   2063 ****       248.7500 362.7500 -64.5000 Du        
   2064 ****       248.7500 362.7500 -64.2500 Du        
   2065 ****       248.7500 362.7500 -64.0000 Du        
   2066 ****       248.7500 362.7500 -63.7500 Du        
   2067 ****       248.7500 362.7500 -63.5000 Du        
   2068 ****       248.7500 362.7500 -63.2500 Du        
   2069 ****       248.7500 362.7500 -63.0000 Du        
   2070 ****       248.7500 362.7500 -62.7500 Du        
   2071 ****       248.7500 362.7500 -62.5000 Du        
   2072 ****       248.7500 362.7500 -62.2500 Du        
   2073 ****       248.7500 362.7500 -62.0000 Du        
   2074 ****       248.7500 362.7500 -61.7500 Du        
   2075 ****       248.7500 363.0000 -77.5000 Du        
   2076 ****       248.7500 363.0000 -77.2500 Du        
   2077 ****       248.7500 363.0000 -77.0000 Du        
   2078 ****       248.7500 363.0000 -76.7500 Du        
   2079 ****       248.7500 363.0000 -76.5000 Du        
   2080 ****       248.7500 363.0000 -76.2500 Du        
   2081 ****       248.7500 363.0000 -76.0000 Du        
   2082 ****       248.7500 363.0000 -75.7500 Du        
   2083 ****       248.7500 363.0000 -75.5000 Du        
   2084 ****       248.7500 363.0000 -75.2500 Du        
   2085 ****       248.7500 363.0000 -75.0000 Du        
   2086 ****       248.7500 363.0000 -67.2500 Du        
   2087 ****       248.7500 363.0000 -67.0000 Du        
   2088 ****       248.7500 363.0000 -66.7500 Du        
   2089 ****       248.7500 363.0000 -66.5000 Du        
   2090 ****       248.7500 363.0000 -66.2500 Du        
   2091 ****       248.7500 363.0000 -66.0000 Du        
   2092 ****       248.7500 363.0000 -65.7500 Du        
   2093 ****       248.7500 363.0000 -65.5000 Du        
   2094 ****       248.7500 363.0000 -65.2500 Du        
   2095 ****       248.7500 363.0000 -65.0000 Du        
   2096 ****       248.7500 363.0000 -64.7500 Du        
   2097 ****       248.7500 363.0000 -64.5000 Du        
   2098 ****       248.7500 363.0000 -64.2500 Du        
   2099 ****       248.7500 363.0000 -64.0000 Du        
   2100 ****       248.7500 363.0000 -63.7500 Du        
   2101 ****       248.7500 363.0000 -63.5000 Du        
   2102 ****       248.7500 363.0000 -63.2500 Du        
   2103 ****       248.7500 363.0000 -63.0000 Du        
   2104 ****       248.7500 363.0000 -62.7500 Du        
   2105 ****       248.7500 363.0000 -62.5000 Du        
   2106 ****       248.7500 363.0000 -62.2500 Du        
   2107 ****       248.7500 363.0000 -62.0000 Du        
   2108 ****       248.7500 363.2500 -77.5000 Du        
   2109 ****       248.7500 363.2500 -77.2500 Du        
   2110 ****       248.7500 363.2500 -77.0000 Du        
   2111 ****       248.7500 363.2500 -76.7500 Du        
   2112 ****       248.7500 363.2500 -76.5000 Du        
   2113 ****       248.7500 363.2500 -76.2500 Du        
   2114 ****       248.7500 363.2500 -76.0000 Du        
   2115 ****       248.7500 363.2500 -75.7500 Du        
   2116 ****       248.7500 363.2500 -75.5000 Du        
   2117 ****       248.7500 363.2500 -75.2500 Du        
   2118 ****       248.7500 363.2500 -75.0000 Du        
   2119 ****       248.7500 363.2500 -67.7500 Du        
   2120 ****       248.7500 363.2500 -67.5000 Du        
   2121 ****       248.7500 363.2500 -67.2500 Du        
   2122 ****       248.7500 363.2500 -67.0000 Du        
   2123 ****       248.7500 363.2500 -66.7500 Du        
   2124 ****       248.7500 363.2500 -66.5000 Du        
   2125 ****       248.7500 363.2500 -63.2500 Du        
   2126 ****       248.7500 363.2500 -63.0000 Du        
   2127 ****       248.7500 363.5000 -77.5000 Du        
   2128 ****       248.7500 363.5000 -77.2500 Du        
   2129 ****       248.7500 363.5000 -77.0000 Du        
   2130 ****       248.7500 363.5000 -76.7500 Du        
   2131 ****       248.7500 363.5000 -76.5000 Du        
   2132 ****       248.7500 363.5000 -76.2500 Du        
   2133 ****       248.7500 363.5000 -76.0000 Du        
   2134 ****       248.7500 363.5000 -75.7500 Du        
   2135 ****       248.7500 363.5000 -75.5000 Du        
   2136 ****       248.7500 363.5000 -75.2500 Du        
   2137 ****       248.7500 363.5000 -75.0000 Du        
   2138 ****       248.7500 363.5000 -68.0000 Du        
   2139 ****       248.7500 363.5000 -67.7500 Du        
   2140 ****       248.7500 363.5000 -67.5000 Du        
   2141 ****       248.7500 363.5000 -67.2500 Du        
   2142 ****       248.7500 363.5000 -67.0000 Du        
   2143 ****       248.7500 363.7500 -77.5000 Du        
   2144 ****       248.7500 363.7500 -77.2500 Du        
   2145 ****       248.7500 363.7500 -77.0000 Du        
   2146 ****       248.7500 363.7500 -76.7500 Du        
   2147 ****       248.7500 363.7500 -76.5000 Du        
   2148 ****       248.7500 363.7500 -76.2500 Du        
   2149 ****       248.7500 363.7500 -76.0000 Du        
   2150 ****       248.7500 363.7500 -75.7500 Du        
   2151 ****       248.7500 363.7500 -75.5000 Du        
   2152 ****       248.7500 363.7500 -75.2500 Du        
   2153 ****       248.7500 363.7500 -75.0000 Du        
   2154 ****       248.7500 363.7500 -68.2500 Du        
   2155 ****       248.7500 363.7500 -68.0000 Du        
   2156 ****       248.7500 363.7500 -67.7500 Du        
   2157 ****       248.7500 363.7500 -67.5000 Du        
   2158 ****       248.7500 363.7500 -67.2500 Du        
   2159 ****       248.7500 364.0000 -77.2500 Du        
   2160 ****       248.7500 364.0000 -77.0000 Du        
   2161 ****       248.7500 364.0000 -76.7500 Du        
   2162 ****       248.7500 364.0000 -76.5000 Du        
   2163 ****       248.7500 364.0000 -76.2500 Du        
   2164 ****       248.7500 364.0000 -76.0000 Du        
   2165 ****       248.7500 364.0000 -75.7500 Du        
   2166 ****       248.7500 364.0000 -75.5000 Du        
   2167 ****       248.7500 364.0000 -75.2500 Du        
   2168 ****       248.7500 364.0000 -75.0000 Du        
   2169 ****       248.7500 364.0000 -68.7500 Du        
   2170 ****       248.7500 364.0000 -68.5000 Du        
   2171 ****       248.7500 364.0000 -68.2500 Du        
   2172 ****       248.7500 364.0000 -68.0000 Du        
   2173 ****       248.7500 364.0000 -67.7500 Du        
   2174 ****       248.7500 364.0000 -67.5000 Du        
   2175 ****       248.7500 364.2500 -76.5000 Du        
   2176 ****       248.7500 364.2500 -76.2500 Du        
   2177 ****       248.7500 364.2500 -76.0000 Du        
   2178 ****       248.7500 364.2500 -75.7500 Du        
   2179 ****       248.7500 364.2500 -75.5000 Du        
   2180 ****       248.7500 364.2500 -75.2500 Du        
   2181 ****       248.7500 364.2500 -75.0000 Du        
   2182 ****       248.7500 364.2500 -69.2500 Du        
   2183 ****       248.7500 364.2500 -69.0000 Du        
   2184 ****       248.7500 364.2500 -68.7500 Du        
   2185 ****       248.7500 364.2500 -68.5000 Du        
   2186 ****       248.7500 364.2500 -68.2500 Du        
   2187 ****       248.7500 364.2500 -68.0000 Du        
   2188 ****       248.7500 364.2500 -67.7500 Du        
   2189 ****       248.7500 364.2500 -67.5000 Du        
   2190 ****       248.7500 364.5000 -76.2500 Du        
   2191 ****       248.7500 364.5000 -76.0000 Du        
   2192 ****       248.7500 364.5000 -75.7500 Du        
   2193 ****       248.7500 364.5000 -75.5000 Du        
   2194 ****       248.7500 364.5000 -75.2500 Du        
   2195 ****       248.7500 364.5000 -69.5000 Du        
   2196 ****       248.7500 364.5000 -69.2500 Du        
   2197 ****       248.7500 364.5000 -69.0000 Du        
   2198 ****       248.7500 364.5000 -68.7500 Du        
   2199 ****       248.7500 364.5000 -68.5000 Du        
   2200 ****       248.7500 364.5000 -68.2500 Du        
   2201 ****       248.7500 364.5000 -68.0000 Du        
   2202 ****       248.7500 364.5000 -67.7500 Du        
   2203 ****       248.7500 364.7500 -75.7500 Du        
   2204 ****       248.7500 364.7500 -75.5000 Du        
   2205 ****       248.7500 364.7500 -75.2500 Du        
   2206 ****       248.7500 364.7500 -69.7500 Du        
   2207 ****       248.7500 364.7500 -69.5000 Du        
   2208 ****       248.7500 364.7500 -69.2500 Du        
   2209 ****       248.7500 364.7500 -69.0000 Du        
   2210 ****       248.7500 364.7500 -68.7500 Du        
   2211 ****       248.7500 364.7500 -68.5000 Du        
   2212 ****       248.7500 364.7500 -68.2500 Du        
   2213 ****       248.7500 364.7500 -68.0000 Du        
   2214 ****       248.7500 365.0000 -69.5000 Du        
   2215 ****       248.7500 365.0000 -69.2500 Du        
   2216 ****       248.7500 365.0000 -69.0000 Du        
   2217 ****       248.7500 365.0000 -68.7500 Du        
   2218 ****       248.7500 365.0000 -68.5000 Du        
   2219 ****       248.7500 365.0000 -68.2500 Du        
   2220 ****       248.7500 365.2500 -69.5000 Du        
   2221 ****       248.7500 365.2500 -69.2500 Du        
   2222 ****       248.7500 365.2500 -69.0000 Du        
   2223 ****       248.7500 365.2500 -68.7500 Du        
   2224 ****       249.0000 357.7500 -75.2500 Du        
   2225 ****       249.0000 357.7500 -75.0000 Du        
   2226 ****       249.0000 357.7500 -74.7500 Du        
   2227 ****       249.0000 358.0000 -75.2500 Du        
   2228 ****       249.0000 358.0000 -75.0000 Du        
   2229 ****       249.0000 358.0000 -74.7500 Du        
   2230 ****       249.0000 358.0000 -74.5000 Du        
   2231 ****       249.0000 358.2500 -75.2500 Du        
   2232 ****       249.0000 358.2500 -75.0000 Du        
   2233 ****       249.0000 358.2500 -74.7500 Du        
   2234 ****       249.0000 358.2500 -74.5000 Du        
   2235 ****       249.0000 358.5000 -75.2500 Du        
   2236 ****       249.0000 358.5000 -75.0000 Du        
   2237 ****       249.0000 358.5000 -74.7500 Du        
   2238 ****       249.0000 358.5000 -74.5000 Du        
   2239 ****       249.0000 358.7500 -75.2500 Du        
   2240 ****       249.0000 358.7500 -75.0000 Du        
   2241 ****       249.0000 358.7500 -74.7500 Du        
   2242 ****       249.0000 359.0000 -75.2500 Du        
   2243 ****       249.0000 359.0000 -75.0000 Du        
   2244 ****       249.0000 359.0000 -74.7500 Du        
   2245 ****       249.0000 359.2500 -75.2500 Du        
   2246 ****       249.0000 359.2500 -75.0000 Du        
   2247 ****       249.0000 359.5000 -75.2500 Du        
   2248 ****       249.0000 359.5000 -75.0000 Du        
   2249 ****       249.0000 359.7500 -75.2500 Du        
   2250 ****       249.0000 359.7500 -75.0000 Du        
   2251 ****       249.0000 360.0000 -75.2500 Du        
   2252 ****       249.0000 360.0000 -75.0000 Du        
   2253 ****       249.0000 360.2500 -75.5000 Du        
   2254 ****       249.0000 360.2500 -75.2500 Du        
   2255 ****       249.0000 360.2500 -75.0000 Du        
   2256 ****       249.0000 360.5000 -75.7500 Du        
   2257 ****       249.0000 360.5000 -75.5000 Du        
   2258 ****       249.0000 360.5000 -75.2500 Du        
   2259 ****       249.0000 360.5000 -75.0000 Du        
   2260 ****       249.0000 360.7500 -76.0000 Du        
   2261 ****       249.0000 360.7500 -75.7500 Du        
   2262 ****       249.0000 360.7500 -75.5000 Du        
   2263 ****       249.0000 360.7500 -75.2500 Du        
   2264 ****       249.0000 360.7500 -75.0000 Du        
   2265 ****       249.0000 361.0000 -76.0000 Du        
   2266 ****       249.0000 361.0000 -75.7500 Du        
   2267 ****       249.0000 361.0000 -75.5000 Du        
   2268 ****       249.0000 361.0000 -75.2500 Du        
   2269 ****       249.0000 361.0000 -75.0000 Du        
   2270 ****       249.0000 361.0000 -74.7500 Du        
   2271 ****       249.0000 361.0000 -62.2500 Du        
   2272 ****       249.0000 361.0000 -62.0000 Du        
   2273 ****       249.0000 361.0000 -61.7500 Du        
   2274 ****       249.0000 361.2500 -76.2500 Du        
   2275 ****       249.0000 361.2500 -76.0000 Du        
   2276 ****       249.0000 361.2500 -75.7500 Du        
   2277 ****       249.0000 361.2500 -75.5000 Du        
   2278 ****       249.0000 361.2500 -75.2500 Du        
   2279 ****       249.0000 361.2500 -75.0000 Du        
   2280 ****       249.0000 361.2500 -74.7500 Du        
   2281 ****       249.0000 361.2500 -62.7500 Du        
   2282 ****       249.0000 361.2500 -62.5000 Du        
   2283 ****       249.0000 361.2500 -62.2500 Du        
   2284 ****       249.0000 361.2500 -62.0000 Du        
   2285 ****       249.0000 361.2500 -61.7500 Du        
   2286 ****       249.0000 361.5000 -76.2500 Du        
   2287 ****       249.0000 361.5000 -76.0000 Du        
   2288 ****       249.0000 361.5000 -75.7500 Du        
   2289 ****       249.0000 361.5000 -75.5000 Du        
   2290 ****       249.0000 361.5000 -75.2500 Du        
   2291 ****       249.0000 361.5000 -75.0000 Du        
   2292 ****       249.0000 361.5000 -74.7500 Du        
   2293 ****       249.0000 361.5000 -63.2500 Du        
   2294 ****       249.0000 361.5000 -63.0000 Du        
   2295 ****       249.0000 361.5000 -62.7500 Du        
   2296 ****       249.0000 361.5000 -62.5000 Du        
   2297 ****       249.0000 361.5000 -62.2500 Du        
   2298 ****       249.0000 361.5000 -62.0000 Du        
   2299 ****       249.0000 361.5000 -61.7500 Du        
   2300 ****       249.0000 361.7500 -76.5000 Du        
   2301 ****       249.0000 361.7500 -76.2500 Du        
   2302 ****       249.0000 361.7500 -76.0000 Du        
   2303 ****       249.0000 361.7500 -75.7500 Du        
   2304 ****       249.0000 361.7500 -75.5000 Du        
   2305 ****       249.0000 361.7500 -75.2500 Du        
   2306 ****       249.0000 361.7500 -75.0000 Du        
   2307 ****       249.0000 361.7500 -64.2500 Du        
   2308 ****       249.0000 361.7500 -64.0000 Du        
   2309 ****       249.0000 361.7500 -63.7500 Du        
   2310 ****       249.0000 361.7500 -63.5000 Du        
   2311 ****       249.0000 361.7500 -63.2500 Du        
   2312 ****       249.0000 361.7500 -63.0000 Du        
   2313 ****       249.0000 361.7500 -62.7500 Du        
   2314 ****       249.0000 361.7500 -62.5000 Du        
   2315 ****       249.0000 361.7500 -62.2500 Du        
   2316 ****       249.0000 361.7500 -62.0000 Du        
   2317 ****       249.0000 361.7500 -61.7500 Du        
   2318 ****       249.0000 362.0000 -77.0000 Du        
   2319 ****       249.0000 362.0000 -76.7500 Du        
   2320 ****       249.0000 362.0000 -76.5000 Du        
   2321 ****       249.0000 362.0000 -76.2500 Du        
   2322 ****       249.0000 362.0000 -76.0000 Du        
   2323 ****       249.0000 362.0000 -75.7500 Du        
   2324 ****       249.0000 362.0000 -75.5000 Du        
   2325 ****       249.0000 362.0000 -75.2500 Du        
   2326 ****       249.0000 362.0000 -75.0000 Du        
   2327 ****       249.0000 362.0000 -64.7500 Du        
   2328 ****       249.0000 362.0000 -64.5000 Du        
   2329 ****       249.0000 362.0000 -64.2500 Du        
   2330 ****       249.0000 362.0000 -64.0000 Du        
   2331 ****       249.0000 362.0000 -63.7500 Du        
   2332 ****       249.0000 362.0000 -63.5000 Du        
   2333 ****       249.0000 362.0000 -63.2500 Du        
   2334 ****       249.0000 362.0000 -63.0000 Du        
   2335 ****       249.0000 362.0000 -62.7500 Du        
   2336 ****       249.0000 362.0000 -62.5000 Du        
   2337 ****       249.0000 362.0000 -62.2500 Du        
   2338 ****       249.0000 362.0000 -62.0000 Du        
   2339 ****       249.0000 362.0000 -61.7500 Du        
   2340 ****       249.0000 362.2500 -77.2500 Du        
   2341 ****       249.0000 362.2500 -77.0000 Du        
   2342 ****       249.0000 362.2500 -76.7500 Du        
   2343 ****       249.0000 362.2500 -76.5000 Du        
   2344 ****       249.0000 362.2500 -76.2500 Du        
   2345 ****       249.0000 362.2500 -76.0000 Du        
   2346 ****       249.0000 362.2500 -75.7500 Du        
   2347 ****       249.0000 362.2500 -75.5000 Du        
   2348 ****       249.0000 362.2500 -75.2500 Du        
   2349 ****       249.0000 362.2500 -75.0000 Du        
   2350 ****       249.0000 362.2500 -65.0000 Du        
   2351 ****       249.0000 362.2500 -64.7500 Du        
   2352 ****       249.0000 362.2500 -64.5000 Du        
   2353 ****       249.0000 362.2500 -64.2500 Du        
   2354 ****       249.0000 362.2500 -64.0000 Du        
   2355 ****       249.0000 362.2500 -63.7500 Du        
   2356 ****       249.0000 362.2500 -63.5000 Du        
   2357 ****       249.0000 362.2500 -63.2500 Du        
   2358 ****       249.0000 362.2500 -63.0000 Du        
   2359 ****       249.0000 362.2500 -62.7500 Du        
   2360 ****       249.0000 362.2500 -62.5000 Du        
   2361 ****       249.0000 362.2500 -62.2500 Du        
   2362 ****       249.0000 362.2500 -62.0000 Du        
   2363 ****       249.0000 362.2500 -61.7500 Du        
   2364 ****       249.0000 362.5000 -77.2500 Du        
   2365 ****       249.0000 362.5000 -77.0000 Du        
   2366 ****       249.0000 362.5000 -76.7500 Du        
   2367 ****       249.0000 362.5000 -76.5000 Du        
   2368 ****       249.0000 362.5000 -76.2500 Du        
   2369 ****       249.0000 362.5000 -76.0000 Du        
   2370 ****       249.0000 362.5000 -75.7500 Du        
   2371 ****       249.0000 362.5000 -75.5000 Du        
   2372 ****       249.0000 362.5000 -75.2500 Du        
   2373 ****       249.0000 362.5000 -75.0000 Du        
   2374 ****       249.0000 362.5000 -64.5000 Du        
   2375 ****       249.0000 362.5000 -64.2500 Du        
   2376 ****       249.0000 362.5000 -64.0000 Du        
   2377 ****       249.0000 362.5000 -63.7500 Du        
   2378 ****       249.0000 362.5000 -63.5000 Du        
   2379 ****       249.0000 362.5000 -63.2500 Du        
   2380 ****       249.0000 362.5000 -63.0000 Du        
   2381 ****       249.0000 362.5000 -62.7500 Du        
   2382 ****       249.0000 362.5000 -62.5000 Du        
   2383 ****       249.0000 362.5000 -62.2500 Du        
   2384 ****       249.0000 362.5000 -62.0000 Du        
   2385 ****       249.0000 362.7500 -77.5000 Du        
   2386 ****       249.0000 362.7500 -77.2500 Du        
   2387 ****       249.0000 362.7500 -77.0000 Du        
   2388 ****       249.0000 362.7500 -76.7500 Du        
   2389 ****       249.0000 362.7500 -76.5000 Du        
   2390 ****       249.0000 362.7500 -76.2500 Du        
   2391 ****       249.0000 362.7500 -76.0000 Du        
   2392 ****       249.0000 362.7500 -75.7500 Du        
   2393 ****       249.0000 362.7500 -75.5000 Du        
   2394 ****       249.0000 362.7500 -75.2500 Du        
   2395 ****       249.0000 362.7500 -63.7500 Du        
   2396 ****       249.0000 362.7500 -63.5000 Du        
   2397 ****       249.0000 362.7500 -63.2500 Du        
   2398 ****       249.0000 362.7500 -63.0000 Du        
   2399 ****       249.0000 362.7500 -62.7500 Du        
   2400 ****       249.0000 362.7500 -62.5000 Du        
   2401 ****       249.0000 362.7500 -62.2500 Du        
   2402 ****       249.0000 362.7500 -62.0000 Du        
   2403 ****       249.0000 363.0000 -77.5000 Du        
   2404 ****       249.0000 363.0000 -77.2500 Du        
   2405 ****       249.0000 363.0000 -77.0000 Du        
   2406 ****       249.0000 363.0000 -76.7500 Du        
   2407 ****       249.0000 363.0000 -76.5000 Du        
   2408 ****       249.0000 363.0000 -76.2500 Du        
   2409 ****       249.0000 363.0000 -76.0000 Du        
   2410 ****       249.0000 363.0000 -75.7500 Du        
   2411 ****       249.0000 363.0000 -75.5000 Du        
   2412 ****       249.0000 363.0000 -75.2500 Du        
   2413 ****       249.0000 363.0000 -63.0000 Du        
   2414 ****       249.0000 363.0000 -62.7500 Du        
   2415 ****       249.0000 363.0000 -62.5000 Du        
   2416 ****       249.0000 363.0000 -62.2500 Du        
   2417 ****       249.0000 363.2500 -77.5000 Du        
   2418 ****       249.0000 363.2500 -77.2500 Du        
   2419 ****       249.0000 363.2500 -77.0000 Du        
   2420 ****       249.0000 363.2500 -76.7500 Du        
   2421 ****       249.0000 363.2500 -76.5000 Du        
   2422 ****       249.0000 363.2500 -76.2500 Du        
   2423 ****       249.0000 363.2500 -76.0000 Du        
   2424 ****       249.0000 363.2500 -75.7500 Du        
   2425 ****       249.0000 363.2500 -75.5000 Du        
   2426 ****       249.0000 363.2500 -75.2500 Du        
   2427 ****       249.0000 363.5000 -77.5000 Du        
   2428 ****       249.0000 363.5000 -77.2500 Du        
   2429 ****       249.0000 363.5000 -77.0000 Du        
   2430 ****       249.0000 363.5000 -76.7500 Du        
   2431 ****       249.0000 363.5000 -76.5000 Du        
   2432 ****       249.0000 363.5000 -76.2500 Du        
   2433 ****       249.0000 363.5000 -76.0000 Du        
   2434 ****       249.0000 363.5000 -75.7500 Du        
   2435 ****       249.0000 363.5000 -75.5000 Du        
   2436 ****       249.0000 363.5000 -75.2500 Du        
   2437 ****       249.0000 363.7500 -77.2500 Du        
   2438 ****       249.0000 363.7500 -77.0000 Du        
   2439 ****       249.0000 363.7500 -76.7500 Du        
   2440 ****       249.0000 363.7500 -76.5000 Du        
   2441 ****       249.0000 363.7500 -76.2500 Du        
   2442 ****       249.0000 363.7500 -76.0000 Du        
   2443 ****       249.0000 363.7500 -75.7500 Du        
   2444 ****       249.0000 363.7500 -75.5000 Du        
   2445 ****       249.0000 363.7500 -75.2500 Du        
   2446 ****       249.0000 363.7500 -68.5000 Du        
   2447 ****       249.0000 363.7500 -68.2500 Du        
   2448 ****       249.0000 363.7500 -68.0000 Du        
   2449 ****       249.0000 363.7500 -67.7500 Du        
   2450 ****       249.0000 364.0000 -77.0000 Du        
   2451 ****       249.0000 364.0000 -76.7500 Du        
   2452 ****       249.0000 364.0000 -76.5000 Du        
   2453 ****       249.0000 364.0000 -76.2500 Du        
   2454 ****       249.0000 364.0000 -76.0000 Du        
   2455 ****       249.0000 364.0000 -75.7500 Du        
   2456 ****       249.0000 364.0000 -75.5000 Du        
   2457 ****       249.0000 364.0000 -75.2500 Du        
   2458 ****       249.0000 364.0000 -69.0000 Du        
   2459 ****       249.0000 364.0000 -68.7500 Du        
   2460 ****       249.0000 364.0000 -68.5000 Du        
   2461 ****       249.0000 364.0000 -68.2500 Du        
   2462 ****       249.0000 364.0000 -68.0000 Du        
   2463 ****       249.0000 364.0000 -67.7500 Du        
   2464 ****       249.0000 364.2500 -76.5000 Du        
   2465 ****       249.0000 364.2500 -76.2500 Du        
   2466 ****       249.0000 364.2500 -76.0000 Du        
   2467 ****       249.0000 364.2500 -75.7500 Du        
   2468 ****       249.0000 364.2500 -75.5000 Du        
   2469 ****       249.0000 364.2500 -75.2500 Du        
   2470 ****       249.0000 364.2500 -69.5000 Du        
   2471 ****       249.0000 364.2500 -69.2500 Du        
   2472 ****       249.0000 364.2500 -69.0000 Du        
   2473 ****       249.0000 364.2500 -68.7500 Du        
   2474 ****       249.0000 364.2500 -68.5000 Du        
   2475 ****       249.0000 364.2500 -68.2500 Du        
   2476 ****       249.0000 364.2500 -68.0000 Du        
   2477 ****       249.0000 364.2500 -67.7500 Du        
   2478 ****       249.0000 364.5000 -76.0000 Du        
   2479 ****       249.0000 364.5000 -75.7500 Du        
   2480 ****       249.0000 364.5000 -75.5000 Du        
   2481 ****       249.0000 364.5000 -75.2500 Du        
   2482 ****       249.0000 364.5000 -69.7500 Du        
   2483 ****       249.0000 364.5000 -69.5000 Du        
   2484 ****       249.0000 364.5000 -69.2500 Du        
   2485 ****       249.0000 364.5000 -69.0000 Du        
   2486 ****       249.0000 364.5000 -68.7500 Du        
   2487 ****       249.0000 364.5000 -68.5000 Du        
   2488 ****       249.0000 364.5000 -68.2500 Du        
   2489 ****       249.0000 364.5000 -68.0000 Du        
   2490 ****       249.0000 364.7500 -70.0000 Du        
   2491 ****       249.0000 364.7500 -69.7500 Du        
   2492 ****       249.0000 364.7500 -69.5000 Du        
   2493 ****       249.0000 364.7500 -69.2500 Du        
   2494 ****       249.0000 364.7500 -69.0000 Du        
   2495 ****       249.0000 364.7500 -68.7500 Du        
   2496 ****       249.0000 364.7500 -68.5000 Du        
   2497 ****       249.0000 364.7500 -68.2500 Du        
   2498 ****       249.0000 364.7500 -68.0000 Du        
   2499 ****       249.0000 365.0000 -70.0000 Du        
   2500 ****       249.0000 365.0000 -69.7500 Du        
   2501 ****       249.0000 365.0000 -69.5000 Du        
   2502 ****       249.0000 365.0000 -69.2500 Du        
   2503 ****       249.0000 365.0000 -69.0000 Du        
   2504 ****       249.0000 365.0000 -68.7500 Du        
   2505 ****       249.0000 365.0000 -68.5000 Du        
   2506 ****       249.0000 365.0000 -68.2500 Du        
   2507 ****       249.0000 365.2500 -69.7500 Du        
   2508 ****       249.0000 365.2500 -69.5000 Du        
   2509 ****       249.0000 365.2500 -69.2500 Du        
   2510 ****       249.0000 365.2500 -69.0000 Du        
   2511 ****       249.0000 365.2500 -68.7500 Du        
   2512 ****       249.0000 365.2500 -68.5000 Du        
   2513 ****       249.0000 365.5000 -69.5000 Du        
   2514 ****       249.0000 365.5000 -69.2500 Du        
   2515 ****       249.0000 365.5000 -69.0000 Du        
   2516 ****       249.0000 365.5000 -68.7500 Du        
   2517 ****       249.0000 365.7500 -69.2500 Du        
   2518 ****       249.0000 365.7500 -69.0000 Du        
   2519 ****       249.2500 358.0000 -75.2500 Du        
   2520 ****       249.2500 358.0000 -75.0000 Du        
   2521 ****       249.2500 358.0000 -74.7500 Du        
   2522 ****       249.2500 358.2500 -75.2500 Du        
   2523 ****       249.2500 358.2500 -75.0000 Du        
   2524 ****       249.2500 358.2500 -74.7500 Du        
   2525 ****       249.2500 358.5000 -75.0000 Du        
   2526 ****       249.2500 358.5000 -74.7500 Du        
   2527 ****       249.2500 358.7500 -75.0000 Du        
   2528 ****       249.2500 359.0000 -75.0000 Du        
   2529 ****       249.2500 360.5000 -62.0000 Du        
   2530 ****       249.2500 360.5000 -61.7500 Du        
   2531 ****       249.2500 360.7500 -62.2500 Du        
   2532 ****       249.2500 360.7500 -62.0000 Du        
   2533 ****       249.2500 360.7500 -61.7500 Du        
   2534 ****       249.2500 361.0000 -75.2500 Du        
   2535 ****       249.2500 361.0000 -75.0000 Du        
   2536 ****       249.2500 361.0000 -62.7500 Du        
   2537 ****       249.2500 361.0000 -62.5000 Du        
   2538 ****       249.2500 361.0000 -62.2500 Du        
   2539 ****       249.2500 361.0000 -62.0000 Du        
   2540 ****       249.2500 361.0000 -61.7500 Du        
   2541 ****       249.2500 361.2500 -75.7500 Du        
   2542 ****       249.2500 361.2500 -75.5000 Du        
   2543 ****       249.2500 361.2500 -75.2500 Du        
   2544 ****       249.2500 361.2500 -75.0000 Du        
   2545 ****       249.2500 361.2500 -63.2500 Du        
   2546 ****       249.2500 361.2500 -63.0000 Du        
   2547 ****       249.2500 361.2500 -62.7500 Du        
   2548 ****       249.2500 361.2500 -62.5000 Du        
   2549 ****       249.2500 361.2500 -62.2500 Du        
   2550 ****       249.2500 361.2500 -62.0000 Du        
   2551 ****       249.2500 361.2500 -61.7500 Du        
   2552 ****       249.2500 361.5000 -76.0000 Du        
   2553 ****       249.2500 361.5000 -75.7500 Du        
   2554 ****       249.2500 361.5000 -75.5000 Du        
   2555 ****       249.2500 361.5000 -75.2500 Du        
   2556 ****       249.2500 361.5000 -63.7500 Du        
   2557 ****       249.2500 361.5000 -63.5000 Du        
   2558 ****       249.2500 361.5000 -63.2500 Du        
   2559 ****       249.2500 361.5000 -63.0000 Du        
   2560 ****       249.2500 361.5000 -62.7500 Du        
   2561 ****       249.2500 361.5000 -62.5000 Du        
   2562 ****       249.2500 361.5000 -62.2500 Du        
   2563 ****       249.2500 361.5000 -62.0000 Du        
   2564 ****       249.2500 361.7500 -76.2500 Du        
   2565 ****       249.2500 361.7500 -76.0000 Du        
   2566 ****       249.2500 361.7500 -75.7500 Du        
   2567 ****       249.2500 361.7500 -75.5000 Du        
   2568 ****       249.2500 361.7500 -75.2500 Du        
   2569 ****       249.2500 361.7500 -64.0000 Du        
   2570 ****       249.2500 361.7500 -63.7500 Du        
   2571 ****       249.2500 361.7500 -63.5000 Du        
   2572 ****       249.2500 361.7500 -63.2500 Du        
   2573 ****       249.2500 361.7500 -63.0000 Du        
   2574 ****       249.2500 361.7500 -62.7500 Du        
   2575 ****       249.2500 361.7500 -62.5000 Du        
   2576 ****       249.2500 361.7500 -62.2500 Du        
   2577 ****       249.2500 361.7500 -62.0000 Du        
   2578 ****       249.2500 362.0000 -76.5000 Du        
   2579 ****       249.2500 362.0000 -76.2500 Du        
   2580 ****       249.2500 362.0000 -76.0000 Du        
   2581 ****       249.2500 362.0000 -75.7500 Du        
   2582 ****       249.2500 362.0000 -75.5000 Du        
   2583 ****       249.2500 362.0000 -75.2500 Du        
   2584 ****       249.2500 362.0000 -64.2500 Du        
   2585 ****       249.2500 362.0000 -64.0000 Du        
   2586 ****       249.2500 362.0000 -63.7500 Du        
   2587 ****       249.2500 362.0000 -63.5000 Du        
   2588 ****       249.2500 362.0000 -63.2500 Du        
   2589 ****       249.2500 362.0000 -63.0000 Du        
   2590 ****       249.2500 362.0000 -62.7500 Du        
   2591 ****       249.2500 362.0000 -62.5000 Du        
   2592 ****       249.2500 362.0000 -62.2500 Du        
   2593 ****       249.2500 362.0000 -62.0000 Du        
   2594 ****       249.2500 362.2500 -76.7500 Du        
   2595 ****       249.2500 362.2500 -76.5000 Du        
   2596 ****       249.2500 362.2500 -76.2500 Du        
   2597 ****       249.2500 362.2500 -76.0000 Du        
   2598 ****       249.2500 362.2500 -75.7500 Du        
   2599 ****       249.2500 362.2500 -75.5000 Du        
   2600 ****       249.2500 362.2500 -75.2500 Du        
   2601 ****       249.2500 362.2500 -64.0000 Du        
   2602 ****       249.2500 362.2500 -63.7500 Du        
   2603 ****       249.2500 362.2500 -63.5000 Du        
   2604 ****       249.2500 362.2500 -63.2500 Du        
   2605 ****       249.2500 362.2500 -63.0000 Du        
   2606 ****       249.2500 362.2500 -62.7500 Du        
   2607 ****       249.2500 362.2500 -62.5000 Du        
   2608 ****       249.2500 362.2500 -62.2500 Du        
   2609 ****       249.2500 362.2500 -62.0000 Du        
   2610 ****       249.2500 362.5000 -77.0000 Du        
   2611 ****       249.2500 362.5000 -76.7500 Du        
   2612 ****       249.2500 362.5000 -76.5000 Du        
   2613 ****       249.2500 362.5000 -76.2500 Du        
   2614 ****       249.2500 362.5000 -76.0000 Du        
   2615 ****       249.2500 362.5000 -75.7500 Du        
   2616 ****       249.2500 362.5000 -75.5000 Du        
   2617 ****       249.2500 362.5000 -75.2500 Du        
   2618 ****       249.2500 362.5000 -63.2500 Du        
   2619 ****       249.2500 362.5000 -63.0000 Du        
   2620 ****       249.2500 362.5000 -62.7500 Du        
   2621 ****       249.2500 362.5000 -62.5000 Du        
   2622 ****       249.2500 362.5000 -62.2500 Du        
   2623 ****       249.2500 362.5000 -62.0000 Du        
   2624 ****       249.2500 362.7500 -77.2500 Du        
   2625 ****       249.2500 362.7500 -77.0000 Du        
   2626 ****       249.2500 362.7500 -76.7500 Du        
   2627 ****       249.2500 362.7500 -76.5000 Du        
   2628 ****       249.2500 362.7500 -76.2500 Du        
   2629 ****       249.2500 362.7500 -76.0000 Du        
   2630 ****       249.2500 362.7500 -75.7500 Du        
   2631 ****       249.2500 362.7500 -75.5000 Du        
   2632 ****       249.2500 362.7500 -62.7500 Du        
   2633 ****       249.2500 362.7500 -62.5000 Du        
   2634 ****       249.2500 362.7500 -62.2500 Du        
   2635 ****       249.2500 363.0000 -77.5000 Du        
   2636 ****       249.2500 363.0000 -77.2500 Du        
   2637 ****       249.2500 363.0000 -77.0000 Du        
   2638 ****       249.2500 363.0000 -76.7500 Du        
   2639 ****       249.2500 363.0000 -76.5000 Du        
   2640 ****       249.2500 363.0000 -76.2500 Du        
   2641 ****       249.2500 363.0000 -76.0000 Du        
   2642 ****       249.2500 363.0000 -75.7500 Du        
   2643 ****       249.2500 363.0000 -75.5000 Du        
   2644 ****       249.2500 363.2500 -77.5000 Du        
   2645 ****       249.2500 363.2500 -77.2500 Du        
   2646 ****       249.2500 363.2500 -77.0000 Du        
   2647 ****       249.2500 363.2500 -76.7500 Du        
   2648 ****       249.2500 363.2500 -76.5000 Du        
   2649 ****       249.2500 363.2500 -76.2500 Du        
   2650 ****       249.2500 363.2500 -76.0000 Du        
   2651 ****       249.2500 363.2500 -75.7500 Du        
   2652 ****       249.2500 363.2500 -75.5000 Du        
   2653 ****       249.2500 363.5000 -77.2500 Du        
   2654 ****       249.2500 363.5000 -77.0000 Du        
   2655 ****       249.2500 363.5000 -76.7500 Du        
   2656 ****       249.2500 363.5000 -76.5000 Du        
   2657 ****       249.2500 363.5000 -76.2500 Du        
   2658 ****       249.2500 363.5000 -76.0000 Du        
   2659 ****       249.2500 363.5000 -75.7500 Du        
   2660 ****       249.2500 363.5000 -75.5000 Du        
   2661 ****       249.2500 363.7500 -77.0000 Du        
   2662 ****       249.2500 363.7500 -76.7500 Du        
   2663 ****       249.2500 363.7500 -76.5000 Du        
   2664 ****       249.2500 363.7500 -76.2500 Du        
   2665 ****       249.2500 363.7500 -76.0000 Du        
   2666 ****       249.2500 363.7500 -75.7500 Du        
   2667 ****       249.2500 363.7500 -75.5000 Du        
   2668 ****       249.2500 363.7500 -68.7500 Du        
   2669 ****       249.2500 363.7500 -68.5000 Du        
   2670 ****       249.2500 363.7500 -68.2500 Du        
   2671 ****       249.2500 364.0000 -76.7500 Du        
   2672 ****       249.2500 364.0000 -76.5000 Du        
   2673 ****       249.2500 364.0000 -76.2500 Du        
   2674 ****       249.2500 364.0000 -76.0000 Du        
   2675 ****       249.2500 364.0000 -75.7500 Du        
   2676 ****       249.2500 364.0000 -75.5000 Du        
   2677 ****       249.2500 364.0000 -69.2500 Du        
   2678 ****       249.2500 364.0000 -69.0000 Du        
   2679 ****       249.2500 364.0000 -68.7500 Du        
   2680 ****       249.2500 364.0000 -68.5000 Du        
   2681 ****       249.2500 364.0000 -68.2500 Du        
   2682 ****       249.2500 364.0000 -68.0000 Du        
   2683 ****       249.2500 364.2500 -76.0000 Du        
   2684 ****       249.2500 364.2500 -75.7500 Du        
   2685 ****       249.2500 364.2500 -69.7500 Du        
   2686 ****       249.2500 364.2500 -69.5000 Du        
   2687 ****       249.2500 364.2500 -69.2500 Du        
   2688 ****       249.2500 364.2500 -69.0000 Du        
   2689 ****       249.2500 364.2500 -68.7500 Du        
   2690 ****       249.2500 364.2500 -68.5000 Du        
   2691 ****       249.2500 364.2500 -68.2500 Du        
   2692 ****       249.2500 364.2500 -68.0000 Du        
   2693 ****       249.2500 364.5000 -70.0000 Du        
   2694 ****       249.2500 364.5000 -69.7500 Du        
   2695 ****       249.2500 364.5000 -69.5000 Du        
   2696 ****       249.2500 364.5000 -69.2500 Du        
   2697 ****       249.2500 364.5000 -69.0000 Du        
   2698 ****       249.2500 364.5000 -68.7500 Du        
   2699 ****       249.2500 364.5000 -68.5000 Du        
   2700 ****       249.2500 364.5000 -68.2500 Du        
   2701 ****       249.2500 364.5000 -68.0000 Du        
   2702 ****       249.2500 364.7500 -70.0000 Du        
   2703 ****       249.2500 364.7500 -69.7500 Du        
   2704 ****       249.2500 364.7500 -69.5000 Du        
   2705 ****       249.2500 364.7500 -69.2500 Du        
   2706 ****       249.2500 364.7500 -69.0000 Du        
   2707 ****       249.2500 364.7500 -68.7500 Du        
   2708 ****       249.2500 364.7500 -68.5000 Du        
   2709 ****       249.2500 364.7500 -68.2500 Du        
   2710 ****       249.2500 365.0000 -70.0000 Du        
   2711 ****       249.2500 365.0000 -69.7500 Du        
   2712 ****       249.2500 365.0000 -69.5000 Du        
   2713 ****       249.2500 365.0000 -69.2500 Du        
   2714 ****       249.2500 365.0000 -69.0000 Du        
   2715 ****       249.2500 365.0000 -68.7500 Du        
   2716 ****       249.2500 365.0000 -68.5000 Du        
   2717 ****       249.2500 365.0000 -68.2500 Du        
   2718 ****       249.2500 365.2500 -69.7500 Du        
   2719 ****       249.2500 365.2500 -69.5000 Du        
   2720 ****       249.2500 365.2500 -69.2500 Du        
   2721 ****       249.2500 365.2500 -69.0000 Du        
   2722 ****       249.2500 365.2500 -68.7500 Du        
   2723 ****       249.2500 365.2500 -68.5000 Du        
   2724 ****       249.2500 365.5000 -69.5000 Du        
   2725 ****       249.2500 365.5000 -69.2500 Du        
   2726 ****       249.2500 365.5000 -69.0000 Du        
   2727 ****       249.2500 365.5000 -68.7500 Du        
   2728 ****       249.2500 365.7500 -69.5000 Du        
   2729 ****       249.2500 365.7500 -69.2500 Du        
   2730 ****       249.2500 365.7500 -69.0000 Du        
   2731 ****       249.5000 360.2500 -62.0000 Du        
   2732 ****       249.5000 360.2500 -61.7500 Du        
   2733 ****       249.5000 360.5000 -62.2500 Du        
   2734 ****       249.5000 360.5000 -62.0000 Du        
   2735 ****       249.5000 360.5000 -61.7500 Du        
   2736 ****       249.5000 360.7500 -62.7500 Du        
   2737 ****       249.5000 360.7500 -62.5000 Du        
   2738 ****       249.5000 360.7500 -62.2500 Du        
   2739 ****       249.5000 360.7500 -62.0000 Du        
   2740 ****       249.5000 360.7500 -61.7500 Du        
   2741 ****       249.5000 361.0000 -63.0000 Du        
   2742 ****       249.5000 361.0000 -62.7500 Du        
   2743 ****       249.5000 361.0000 -62.5000 Du        
   2744 ****       249.5000 361.0000 -62.2500 Du        
   2745 ****       249.5000 361.0000 -62.0000 Du        
   2746 ****       249.5000 361.0000 -61.7500 Du        
   2747 ****       249.5000 361.2500 -63.5000 Du        
   2748 ****       249.5000 361.2500 -63.2500 Du        
   2749 ****       249.5000 361.2500 -63.0000 Du        
   2750 ****       249.5000 361.2500 -62.7500 Du        
   2751 ****       249.5000 361.2500 -62.5000 Du        
   2752 ****       249.5000 361.2500 -62.2500 Du        
   2753 ****       249.5000 361.2500 -62.0000 Du        
   2754 ****       249.5000 361.5000 -63.5000 Du        
   2755 ****       249.5000 361.5000 -63.2500 Du        
   2756 ****       249.5000 361.5000 -63.0000 Du        
   2757 ****       249.5000 361.5000 -62.7500 Du        
   2758 ****       249.5000 361.5000 -62.5000 Du        
   2759 ****       249.5000 361.5000 -62.2500 Du        
   2760 ****       249.5000 361.5000 -62.0000 Du        
   2761 ****       249.5000 361.7500 -76.0000 Du        
   2762 ****       249.5000 361.7500 -75.7500 Du        
   2763 ****       249.5000 361.7500 -75.5000 Du        
   2764 ****       249.5000 361.7500 -63.7500 Du        
   2765 ****       249.5000 361.7500 -63.5000 Du        
   2766 ****       249.5000 361.7500 -63.2500 Du        
   2767 ****       249.5000 361.7500 -63.0000 Du        
   2768 ****       249.5000 361.7500 -62.7500 Du        
   2769 ****       249.5000 361.7500 -62.5000 Du        
   2770 ****       249.5000 361.7500 -62.2500 Du        
   2771 ****       249.5000 361.7500 -62.0000 Du        
   2772 ****       249.5000 362.0000 -76.2500 Du        
   2773 ****       249.5000 362.0000 -76.0000 Du        
   2774 ****       249.5000 362.0000 -75.7500 Du        
   2775 ****       249.5000 362.0000 -75.5000 Du        
   2776 ****       249.5000 362.0000 -63.5000 Du        
   2777 ****       249.5000 362.0000 -63.2500 Du        
   2778 ****       249.5000 362.0000 -63.0000 Du        
   2779 ****       249.5000 362.0000 -62.7500 Du        
   2780 ****       249.5000 362.0000 -62.5000 Du        
   2781 ****       249.5000 362.0000 -62.2500 Du        
   2782 ****       249.5000 362.0000 -62.0000 Du        
   2783 ****       249.5000 362.2500 -76.5000 Du        
   2784 ****       249.5000 362.2500 -76.2500 Du        
   2785 ****       249.5000 362.2500 -76.0000 Du        
   2786 ****       249.5000 362.2500 -75.7500 Du        
   2787 ****       249.5000 362.2500 -75.5000 Du        
   2788 ****       249.5000 362.2500 -63.2500 Du        
   2789 ****       249.5000 362.2500 -63.0000 Du        
   2790 ****       249.5000 362.2500 -62.7500 Du        
   2791 ****       249.5000 362.2500 -62.5000 Du        
   2792 ****       249.5000 362.2500 -62.2500 Du        
   2793 ****       249.5000 362.5000 -76.7500 Du        
   2794 ****       249.5000 362.5000 -76.5000 Du        
   2795 ****       249.5000 362.5000 -76.2500 Du        
   2796 ****       249.5000 362.5000 -76.0000 Du        
   2797 ****       249.5000 362.5000 -75.7500 Du        
   2798 ****       249.5000 362.5000 -75.5000 Du        
   2799 ****       249.5000 362.5000 -62.7500 Du        
   2800 ****       249.5000 362.5000 -62.5000 Du        
   2801 ****       249.5000 362.5000 -62.2500 Du        
   2802 ****       249.5000 362.7500 -77.2500 Du        
   2803 ****       249.5000 362.7500 -77.0000 Du        
   2804 ****       249.5000 362.7500 -76.7500 Du        
   2805 ****       249.5000 362.7500 -76.5000 Du        
   2806 ****       249.5000 362.7500 -76.2500 Du        
   2807 ****       249.5000 362.7500 -76.0000 Du        
   2808 ****       249.5000 362.7500 -75.7500 Du        
   2809 ****       249.5000 362.7500 -75.5000 Du        
   2810 ****       249.5000 363.0000 -77.2500 Du        
   2811 ****       249.5000 363.0000 -77.0000 Du        
   2812 ****       249.5000 363.0000 -76.7500 Du        
   2813 ****       249.5000 363.0000 -76.5000 Du        
   2814 ****       249.5000 363.0000 -76.2500 Du        
   2815 ****       249.5000 363.0000 -76.0000 Du        
   2816 ****       249.5000 363.0000 -75.7500 Du        
   2817 ****       249.5000 363.0000 -75.5000 Du        
   2818 ****       249.5000 363.2500 -77.2500 Du        
   2819 ****       249.5000 363.2500 -77.0000 Du        
   2820 ****       249.5000 363.2500 -76.7500 Du        
   2821 ****       249.5000 363.2500 -76.5000 Du        
   2822 ****       249.5000 363.2500 -76.2500 Du        
   2823 ****       249.5000 363.2500 -76.0000 Du        
   2824 ****       249.5000 363.2500 -75.7500 Du        
   2825 ****       249.5000 363.5000 -77.0000 Du        
   2826 ****       249.5000 363.5000 -76.7500 Du        
   2827 ****       249.5000 363.5000 -76.5000 Du        
   2828 ****       249.5000 363.5000 -76.2500 Du        
   2829 ****       249.5000 363.5000 -76.0000 Du        
   2830 ****       249.5000 363.5000 -75.7500 Du        
   2831 ****       249.5000 363.7500 -76.7500 Du        
   2832 ****       249.5000 363.7500 -76.5000 Du        
   2833 ****       249.5000 363.7500 -76.2500 Du        
   2834 ****       249.5000 363.7500 -76.0000 Du        
   2835 ****       249.5000 363.7500 -75.7500 Du        
   2836 ****       249.5000 363.7500 -69.0000 Du        
   2837 ****       249.5000 363.7500 -68.7500 Du        
   2838 ****       249.5000 363.7500 -68.5000 Du        
   2839 ****       249.5000 364.0000 -76.2500 Du        
   2840 ****       249.5000 364.0000 -76.0000 Du        
   2841 ****       249.5000 364.0000 -69.5000 Du        
   2842 ****       249.5000 364.0000 -69.2500 Du        
   2843 ****       249.5000 364.0000 -69.0000 Du        
   2844 ****       249.5000 364.0000 -68.7500 Du        
   2845 ****       249.5000 364.0000 -68.5000 Du        
   2846 ****       249.5000 364.0000 -68.2500 Du        
   2847 ****       249.5000 364.2500 -70.0000 Du        
   2848 ****       249.5000 364.2500 -69.7500 Du        
   2849 ****       249.5000 364.2500 -69.5000 Du        
   2850 ****       249.5000 364.2500 -69.2500 Du        
   2851 ****       249.5000 364.2500 -69.0000 Du        
   2852 ****       249.5000 364.2500 -68.7500 Du        
   2853 ****       249.5000 364.2500 -68.5000 Du        
   2854 ****       249.5000 364.2500 -68.2500 Du        
   2855 ****       249.5000 364.5000 -70.0000 Du        
   2856 ****       249.5000 364.5000 -69.7500 Du        
   2857 ****       249.5000 364.5000 -69.5000 Du        
   2858 ****       249.5000 364.5000 -69.2500 Du        
   2859 ****       249.5000 364.5000 -69.0000 Du        
   2860 ****       249.5000 364.5000 -68.7500 Du        
   2861 ****       249.5000 364.5000 -68.5000 Du        
   2862 ****       249.5000 364.5000 -68.2500 Du        
   2863 ****       249.5000 364.7500 -70.0000 Du        
   2864 ****       249.5000 364.7500 -69.7500 Du        
   2865 ****       249.5000 364.7500 -69.5000 Du        
   2866 ****       249.5000 364.7500 -69.2500 Du        
   2867 ****       249.5000 364.7500 -69.0000 Du        
   2868 ****       249.5000 364.7500 -68.7500 Du        
   2869 ****       249.5000 364.7500 -68.5000 Du        
   2870 ****       249.5000 364.7500 -68.2500 Du        
   2871 ****       249.5000 365.0000 -70.0000 Du        
   2872 ****       249.5000 365.0000 -69.7500 Du        
   2873 ****       249.5000 365.0000 -69.5000 Du        
   2874 ****       249.5000 365.0000 -69.2500 Du        
   2875 ****       249.5000 365.0000 -69.0000 Du        
   2876 ****       249.5000 365.0000 -68.7500 Du        
   2877 ****       249.5000 365.0000 -68.5000 Du        
   2878 ****       249.5000 365.0000 -68.2500 Du        
   2879 ****       249.5000 365.2500 -70.0000 Du        
   2880 ****       249.5000 365.2500 -69.7500 Du        
   2881 ****       249.5000 365.2500 -69.5000 Du        
   2882 ****       249.5000 365.2500 -69.2500 Du        
   2883 ****       249.5000 365.2500 -69.0000 Du        
   2884 ****       249.5000 365.2500 -68.7500 Du        
   2885 ****       249.5000 365.2500 -68.5000 Du        
   2886 ****       249.5000 365.5000 -69.7500 Du        
   2887 ****       249.5000 365.5000 -69.5000 Du        
   2888 ****       249.5000 365.5000 -69.2500 Du        
   2889 ****       249.5000 365.5000 -69.0000 Du        
   2890 ****       249.5000 365.5000 -68.7500 Du        
   2891 ****       249.5000 365.7500 -69.7500 Du        
   2892 ****       249.5000 365.7500 -69.5000 Du        
   2893 ****       249.5000 365.7500 -69.2500 Du        
   2894 ****       249.5000 365.7500 -69.0000 Du        
   2895 ****       249.5000 366.0000 -69.7500 Du        
   2896 ****       249.5000 366.0000 -69.5000 Du        
   2897 ****       249.5000 366.0000 -69.2500 Du        
   2898 ****       249.7500 360.5000 -62.2500 Du        
   2899 ****       249.7500 360.5000 -62.0000 Du        
   2900 ****       249.7500 360.7500 -62.7500 Du        
   2901 ****       249.7500 360.7500 -62.5000 Du        
   2902 ****       249.7500 360.7500 -62.2500 Du        
   2903 ****       249.7500 360.7500 -62.0000 Du        
   2904 ****       249.7500 361.0000 -63.0000 Du        
   2905 ****       249.7500 361.0000 -62.7500 Du        
   2906 ****       249.7500 361.0000 -62.5000 Du        
   2907 ****       249.7500 361.0000 -62.2500 Du        
   2908 ****       249.7500 361.0000 -62.0000 Du        
   2909 ****       249.7500 361.2500 -63.2500 Du        
   2910 ****       249.7500 361.2500 -63.0000 Du        
   2911 ****       249.7500 361.2500 -62.7500 Du        
   2912 ****       249.7500 361.2500 -62.5000 Du        
   2913 ****       249.7500 361.2500 -62.2500 Du        
   2914 ****       249.7500 361.2500 -62.0000 Du        
   2915 ****       249.7500 361.5000 -63.2500 Du        
   2916 ****       249.7500 361.5000 -63.0000 Du        
   2917 ****       249.7500 361.5000 -62.7500 Du        
   2918 ****       249.7500 361.5000 -62.5000 Du        
   2919 ****       249.7500 361.5000 -62.2500 Du        
   2920 ****       249.7500 361.5000 -62.0000 Du        
   2921 ****       249.7500 361.7500 -63.2500 Du        
   2922 ****       249.7500 361.7500 -63.0000 Du        
   2923 ****       249.7500 361.7500 -62.7500 Du        
   2924 ****       249.7500 361.7500 -62.5000 Du        
   2925 ****       249.7500 361.7500 -62.2500 Du        
   2926 ****       249.7500 362.0000 -63.0000 Du        
   2927 ****       249.7500 362.0000 -62.7500 Du        
   2928 ****       249.7500 362.0000 -62.5000 Du        
   2929 ****       249.7500 362.0000 -62.2500 Du        
   2930 ****       249.7500 362.2500 -76.0000 Du        
   2931 ****       249.7500 362.2500 -75.7500 Du        
   2932 ****       249.7500 362.2500 -62.7500 Du        
   2933 ****       249.7500 362.2500 -62.5000 Du        
   2934 ****       249.7500 362.2500 -62.2500 Du        
   2935 ****       249.7500 362.5000 -76.5000 Du        
   2936 ****       249.7500 362.5000 -76.2500 Du        
   2937 ****       249.7500 362.5000 -76.0000 Du        
   2938 ****       249.7500 362.5000 -75.7500 Du        
   2939 ****       249.7500 362.7500 -76.7500 Du        
   2940 ****       249.7500 362.7500 -76.5000 Du        
   2941 ****       249.7500 362.7500 -76.2500 Du        
   2942 ****       249.7500 362.7500 -76.0000 Du        
   2943 ****       249.7500 362.7500 -75.7500 Du        
   2944 ****       249.7500 363.0000 -77.0000 Du        
   2945 ****       249.7500 363.0000 -76.7500 Du        
   2946 ****       249.7500 363.0000 -76.5000 Du        
   2947 ****       249.7500 363.0000 -76.2500 Du        
   2948 ****       249.7500 363.0000 -76.0000 Du        
   2949 ****       249.7500 363.0000 -75.7500 Du        
   2950 ****       249.7500 363.2500 -77.0000 Du        
   2951 ****       249.7500 363.2500 -76.7500 Du        
   2952 ****       249.7500 363.2500 -76.5000 Du        
   2953 ****       249.7500 363.2500 -76.2500 Du        
   2954 ****       249.7500 363.2500 -76.0000 Du        
   2955 ****       249.7500 363.5000 -76.5000 Du        
   2956 ****       249.7500 363.5000 -76.2500 Du        
   2957 ****       249.7500 363.5000 -76.0000 Du        
   2958 ****       249.7500 363.7500 -69.2500 Du        
   2959 ****       249.7500 363.7500 -69.0000 Du        
   2960 ****       249.7500 363.7500 -68.7500 Du        
   2961 ****       249.7500 364.0000 -69.7500 Du        
   2962 ****       249.7500 364.0000 -69.5000 Du        
   2963 ****       249.7500 364.0000 -69.2500 Du        
   2964 ****       249.7500 364.0000 -69.0000 Du        
   2965 ****       249.7500 364.0000 -68.7500 Du        
   2966 ****       249.7500 364.0000 -68.5000 Du        
   2967 ****       249.7500 364.2500 -70.0000 Du        
   2968 ****       249.7500 364.2500 -69.7500 Du        
   2969 ****       249.7500 364.2500 -69.5000 Du        
   2970 ****       249.7500 364.2500 -69.2500 Du        
   2971 ****       249.7500 364.2500 -69.0000 Du        
   2972 ****       249.7500 364.2500 -68.7500 Du        
   2973 ****       249.7500 364.2500 -68.5000 Du        
   2974 ****       249.7500 364.5000 -70.0000 Du        
   2975 ****       249.7500 364.5000 -69.7500 Du        
   2976 ****       249.7500 364.5000 -69.5000 Du        
   2977 ****       249.7500 364.5000 -69.2500 Du        
   2978 ****       249.7500 364.5000 -69.0000 Du        
   2979 ****       249.7500 364.5000 -68.7500 Du        
   2980 ****       249.7500 364.5000 -68.5000 Du        
   2981 ****       249.7500 364.7500 -70.0000 Du        
   2982 ****       249.7500 364.7500 -69.7500 Du        
   2983 ****       249.7500 364.7500 -69.5000 Du        
   2984 ****       249.7500 364.7500 -69.2500 Du        
   2985 ****       249.7500 364.7500 -69.0000 Du        
   2986 ****       249.7500 364.7500 -68.7500 Du        
   2987 ****       249.7500 364.7500 -68.5000 Du        
   2988 ****       249.7500 365.0000 -70.0000 Du        
   2989 ****       249.7500 365.0000 -69.7500 Du        
   2990 ****       249.7500 365.0000 -69.5000 Du        
   2991 ****       249.7500 365.0000 -69.2500 Du        
   2992 ****       249.7500 365.0000 -69.0000 Du        
   2993 ****       249.7500 365.0000 -68.7500 Du        
   2994 ****       249.7500 365.0000 -68.5000 Du        
   2995 ****       249.7500 365.2500 -70.0000 Du        
   2996 ****       249.7500 365.2500 -69.7500 Du        
   2997 ****       249.7500 365.2500 -69.5000 Du        
   2998 ****       249.7500 365.2500 -69.2500 Du        
   2999 ****       249.7500 365.2500 -69.0000 Du        
   3000 ****       249.7500 365.2500 -68.7500 Du        
   3001 ****       249.7500 365.2500 -68.5000 Du        
   3002 ****       249.7500 365.5000 -69.7500 Du        
   3003 ****       249.7500 365.5000 -69.5000 Du        
   3004 ****       249.7500 365.5000 -69.2500 Du        
   3005 ****       249.7500 365.5000 -69.0000 Du        
   3006 ****       249.7500 365.5000 -68.7500 Du        
   3007 ****       249.7500 365.7500 -69.7500 Du        
   3008 ****       249.7500 365.7500 -69.5000 Du        
   3009 ****       249.7500 365.7500 -69.2500 Du        
   3010 ****       249.7500 365.7500 -69.0000 Du        
   3011 ****       249.7500 366.0000 -69.7500 Du        
   3012 ****       249.7500 366.0000 -69.5000 Du        
   3013 ****       249.7500 366.0000 -69.2500 Du        
   3014 ****       249.7500 366.2500 -69.5000 Du        
   3015 ****       250.0000 360.7500 -62.5000 Du        
   3016 ****       250.0000 360.7500 -62.2500 Du        
   3017 ****       250.0000 361.0000 -62.7500 Du        
   3018 ****       250.0000 361.0000 -62.5000 Du        
   3019 ****       250.0000 361.0000 -62.2500 Du        
   3020 ****       250.0000 361.2500 -63.0000 Du        
   3021 ****       250.0000 361.2500 -62.7500 Du        
   3022 ****       250.0000 361.2500 -62.5000 Du        
   3023 ****       250.0000 361.2500 -62.2500 Du        
   3024 ****       250.0000 361.5000 -63.0000 Du        
   3025 ****       250.0000 361.5000 -62.7500 Du        
   3026 ****       250.0000 361.5000 -62.5000 Du        
   3027 ****       250.0000 361.5000 -62.2500 Du        
   3028 ****       250.0000 361.7500 -63.0000 Du        
   3029 ****       250.0000 361.7500 -62.7500 Du        
   3030 ****       250.0000 361.7500 -62.5000 Du        
   3031 ****       250.0000 361.7500 -62.2500 Du        
   3032 ****       250.0000 362.0000 -62.7500 Du        
   3033 ****       250.0000 362.0000 -62.5000 Du        
   3034 ****       250.0000 362.0000 -62.2500 Du        
   3035 ****       250.0000 363.7500 -69.2500 Du        
   3036 ****       250.0000 363.7500 -69.0000 Du        
   3037 ****       250.0000 364.0000 -69.7500 Du        
   3038 ****       250.0000 364.0000 -69.5000 Du        
   3039 ****       250.0000 364.0000 -69.2500 Du        
   3040 ****       250.0000 364.0000 -69.0000 Du        
   3041 ****       250.0000 364.0000 -68.7500 Du        
   3042 ****       250.0000 364.2500 -69.7500 Du        
   3043 ****       250.0000 364.2500 -69.5000 Du        
   3044 ****       250.0000 364.2500 -69.2500 Du        
   3045 ****       250.0000 364.2500 -69.0000 Du        
   3046 ****       250.0000 364.2500 -68.7500 Du        
   3047 ****       250.0000 364.5000 -70.0000 Du        
   3048 ****       250.0000 364.5000 -69.7500 Du        
   3049 ****       250.0000 364.5000 -69.5000 Du        
   3050 ****       250.0000 364.5000 -69.2500 Du        
   3051 ****       250.0000 364.5000 -69.0000 Du        
   3052 ****       250.0000 364.5000 -68.7500 Du        
   3053 ****       250.0000 364.5000 -68.5000 Du        
   3054 ****       250.0000 364.7500 -70.0000 Du        
   3055 ****       250.0000 364.7500 -69.7500 Du        
   3056 ****       250.0000 364.7500 -69.5000 Du        
   3057 ****       250.0000 364.7500 -69.2500 Du        
   3058 ****       250.0000 364.7500 -69.0000 Du        
   3059 ****       250.0000 364.7500 -68.7500 Du        
   3060 ****       250.0000 364.7500 -68.5000 Du        
   3061 ****       250.0000 365.0000 -70.0000 Du        
   3062 ****       250.0000 365.0000 -69.7500 Du        
   3063 ****       250.0000 365.0000 -69.5000 Du        
   3064 ****       250.0000 365.0000 -69.2500 Du        
   3065 ****       250.0000 365.0000 -69.0000 Du        
   3066 ****       250.0000 365.0000 -68.7500 Du        
   3067 ****       250.0000 365.0000 -68.5000 Du        
   3068 ****       250.0000 365.2500 -69.7500 Du        
   3069 ****       250.0000 365.2500 -69.5000 Du        
   3070 ****       250.0000 365.2500 -69.2500 Du        
   3071 ****       250.0000 365.2500 -69.0000 Du        
   3072 ****       250.0000 365.2500 -68.7500 Du        
   3073 ****       250.0000 365.5000 -69.7500 Du        
   3074 ****       250.0000 365.5000 -69.5000 Du        
   3075 ****       250.0000 365.5000 -69.2500 Du        
   3076 ****       250.0000 365.5000 -69.0000 Du        
   3077 ****       250.0000 365.7500 -69.7500 Du        
   3078 ****       250.0000 365.7500 -69.5000 Du        
   3079 ****       250.0000 365.7500 -69.2500 Du        
   3080 ****       250.0000 365.7500 -69.0000 Du        
   3081 ****       250.0000 366.0000 -69.7500 Du        
   3082 ****       250.0000 366.0000 -69.5000 Du        
   3083 ****       250.0000 366.0000 -69.2500 Du        
   3084 ****       250.2500 364.0000 -69.7500 Du        
   3085 ****       250.2500 364.0000 -69.5000 Du        
   3086 ****       250.2500 364.0000 -69.2500 Du        
   3087 ****       250.2500 364.0000 -69.0000 Du        
   3088 ****       250.2500 364.2500 -69.7500 Du        
   3089 ****       250.2500 364.2500 -69.5000 Du        
   3090 ****       250.2500 364.2500 -69.2500 Du        
   3091 ****       250.2500 364.2500 -69.0000 Du        
   3092 ****       250.2500 364.2500 -68.7500 Du        
   3093 ****       250.2500 364.5000 -69.7500 Du        
   3094 ****       250.2500 364.5000 -69.5000 Du        
   3095 ****       250.2500 364.5000 -69.2500 Du        
   3096 ****       250.2500 364.5000 -69.0000 Du        
   3097 ****       250.2500 364.5000 -68.7500 Du        
   3098 ****       250.2500 364.7500 -69.7500 Du        
   3099 ****       250.2500 364.7500 -69.5000 Du        
   3100 ****       250.2500 364.7500 -69.2500 Du        
   3101 ****       250.2500 364.7500 -69.0000 Du        
   3102 ****       250.2500 364.7500 -68.7500 Du        
   3103 ****       250.2500 365.0000 -69.7500 Du        
   3104 ****       250.2500 365.0000 -69.5000 Du        
   3105 ****       250.2500 365.0000 -69.2500 Du        
   3106 ****       250.2500 365.0000 -69.0000 Du        
   3107 ****       250.2500 365.0000 -68.7500 Du        
   3108 ****       250.2500 365.2500 -69.7500 Du        
   3109 ****       250.2500 365.2500 -69.5000 Du        
   3110 ****       250.2500 365.2500 -69.2500 Du        
   3111 ****       250.2500 365.2500 -69.0000 Du        
   3112 ****       250.2500 365.2500 -68.7500 Du        
   3113 ****       250.2500 365.5000 -69.7500 Du        
   3114 ****       250.2500 365.5000 -69.5000 Du        
   3115 ****       250.2500 365.5000 -69.2500 Du        
   3116 ****       250.2500 365.5000 -69.0000 Du        
   3117 ****       250.2500 365.7500 -69.7500 Du        
   3118 ****       250.2500 365.7500 -69.5000 Du        
   3119 ****       250.2500 365.7500 -69.2500 Du        
   3120 ****       250.2500 366.0000 -69.5000 Du        
   3121 ****       250.2500 366.0000 -69.2500 Du        
   3122 ****       250.2500 366.2500 -69.5000 Du        
   3123 ****       250.5000 364.0000 -69.5000 Du        
   3124 ****       250.5000 364.0000 -69.2500 Du        
   3125 ****       250.5000 364.2500 -69.7500 Du        
   3126 ****       250.5000 364.2500 -69.5000 Du        
   3127 ****       250.5000 364.2500 -69.2500 Du        
   3128 ****       250.5000 364.2500 -69.0000 Du        
   3129 ****       250.5000 364.5000 -69.7500 Du        
   3130 ****       250.5000 364.5000 -69.5000 Du        
   3131 ****       250.5000 364.5000 -69.2500 Du        
   3132 ****       250.5000 364.5000 -69.0000 Du        
   3133 ****       250.5000 364.7500 -69.7500 Du        
   3134 ****       250.5000 364.7500 -69.5000 Du        
   3135 ****       250.5000 364.7500 -69.2500 Du        
   3136 ****       250.5000 364.7500 -69.0000 Du        
   3137 ****       250.5000 365.0000 -69.7500 Du        
   3138 ****       250.5000 365.0000 -69.5000 Du        
   3139 ****       250.5000 365.0000 -69.2500 Du        
   3140 ****       250.5000 365.0000 -69.0000 Du        
   3141 ****       250.5000 365.2500 -69.7500 Du        
   3142 ****       250.5000 365.2500 -69.5000 Du        
   3143 ****       250.5000 365.2500 -69.2500 Du        
   3144 ****       250.5000 365.2500 -69.0000 Du        
   3145 ****       250.5000 365.5000 -69.7500 Du        
   3146 ****       250.5000 365.5000 -69.5000 Du        
   3147 ****       250.5000 365.5000 -69.2500 Du        
   3148 ****       250.5000 365.7500 -69.7500 Du        
   3149 ****       250.5000 365.7500 -69.5000 Du        
   3150 ****       250.5000 365.7500 -69.2500 Du        
   3151 ****       250.5000 366.0000 -69.5000 Du        
   3152 ****       250.5000 366.2500 -69.5000 Du        
   3153 ****       250.7500 364.2500 -69.5000 Du        
   3154 ****       250.7500 364.2500 -69.2500 Du        
   3155 ****       250.7500 364.5000 -69.7500 Du        
   3156 ****       250.7500 364.5000 -69.5000 Du        
   3157 ****       250.7500 364.5000 -69.2500 Du        
   3158 ****       250.7500 364.7500 -69.7500 Du        
   3159 ****       250.7500 364.7500 -69.5000 Du        
   3160 ****       250.7500 364.7500 -69.2500 Du        
   3161 ****       250.7500 365.0000 -69.7500 Du        
   3162 ****       250.7500 365.0000 -69.5000 Du        
   3163 ****       250.7500 365.0000 -69.2500 Du        
   3164 ****       250.7500 365.2500 -69.7500 Du        
   3165 ****       250.7500 365.2500 -69.5000 Du        
   3166 ****       250.7500 365.2500 -69.2500 Du        
   3167 ****       250.7500 365.5000 -69.5000 Du        
   3168 ****       250.7500 365.5000 -69.2500 Du        
   3169 ****       250.7500 365.7500 -69.5000 Du        
   3170 ****       250.7500 366.0000 -69.5000 Du        
   3171 ****       253.5000 369.0000 -70.7500 Du        
   3172 ****       253.5000 369.2500 -71.0000 Du        
   3173 ****       253.5000 369.2500 -70.7500 Du        
   3174 ****       253.5000 369.5000 -70.7500 Du        
   3175 ****       253.5000 369.5000 -70.5000 Du        
   3176 ****       253.7500 368.7500 -71.0000 Du        
   3177 ****       253.7500 368.7500 -70.7500 Du        
   3178 ****       253.7500 369.0000 -71.2500 Du        
   3179 ****       253.7500 369.0000 -71.0000 Du        
   3180 ****       253.7500 369.0000 -70.7500 Du        
   3181 ****       253.7500 369.0000 -70.5000 Du        
   3182 ****       253.7500 369.2500 -71.5000 Du        
   3183 ****       253.7500 369.2500 -71.2500 Du        
   3184 ****       253.7500 369.2500 -71.0000 Du        
   3185 ****       253.7500 369.2500 -70.7500 Du        
   3186 ****       253.7500 369.2500 -70.5000 Du        
   3187 ****       253.7500 369.2500 -70.2500 Du        
   3188 ****       253.7500 369.5000 -71.7500 Du        
   3189 ****       253.7500 369.5000 -71.2500 Du        
   3190 ****       253.7500 369.5000 -71.0000 Du        
   3191 ****       253.7500 369.5000 -70.7500 Du        
   3192 ****       253.7500 369.5000 -70.5000 Du        
   3193 ****       253.7500 369.5000 -70.2500 Du        
   3194 ****       253.7500 369.7500 -72.0000 Du        
   3195 ****       253.7500 369.7500 -71.7500 Du        
   3196 ****       253.7500 369.7500 -71.2500 Du        
   3197 ****       253.7500 369.7500 -71.0000 Du        
   3198 ****       253.7500 369.7500 -70.7500 Du        
   3199 ****       253.7500 369.7500 -70.5000 Du        
   3200 ****       253.7500 369.7500 -70.2500 Du        
   3201 ****       254.0000 368.5000 -71.0000 Du        
   3202 ****       254.0000 368.7500 -71.5000 Du        
   3203 ****       254.0000 368.7500 -71.2500 Du        
   3204 ****       254.0000 368.7500 -71.0000 Du        
   3205 ****       254.0000 368.7500 -70.7500 Du        
   3206 ****       254.0000 369.0000 -71.7500 Du        
   3207 ****       254.0000 369.0000 -71.5000 Du        
   3208 ****       254.0000 369.0000 -71.2500 Du        
   3209 ****       254.0000 369.0000 -71.0000 Du        
   3210 ****       254.0000 369.0000 -70.7500 Du        
   3211 ****       254.0000 369.0000 -70.5000 Du        
   3212 ****       254.0000 369.2500 -72.2500 Du        
   3213 ****       254.0000 369.2500 -72.0000 Du        
   3214 ****       254.0000 369.2500 -71.7500 Du        
   3215 ****       254.0000 369.2500 -71.5000 Du        
   3216 ****       254.0000 369.2500 -71.2500 Du        
   3217 ****       254.0000 369.2500 -71.0000 Du        
   3218 ****       254.0000 369.2500 -70.7500 Du        
   3219 ****       254.0000 369.2500 -70.5000 Du        
   3220 ****       254.0000 369.5000 -72.2500 Du        
   3221 ****       254.0000 369.5000 -72.0000 Du        
   3222 ****       254.0000 369.5000 -71.7500 Du        
   3223 ****       254.0000 369.5000 -71.5000 Du        
   3224 ****       254.0000 369.5000 -71.2500 Du        
   3225 ****       254.0000 369.5000 -71.0000 Du        
   3226 ****       254.0000 369.5000 -70.7500 Du        
   3227 ****       254.0000 369.5000 -70.5000 Du        
   3228 ****       254.0000 369.5000 -70.2500 Du        
   3229 ****       254.0000 369.7500 -72.2500 Du        
   3230 ****       254.0000 369.7500 -72.0000 Du        
   3231 ****       254.0000 369.7500 -71.7500 Du        
   3232 ****       254.0000 369.7500 -71.5000 Du        
   3233 ****       254.0000 369.7500 -71.2500 Du        
   3234 ****       254.0000 369.7500 -71.0000 Du        
   3235 ****       254.0000 369.7500 -70.7500 Du        
   3236 ****       254.0000 369.7500 -70.5000 Du        
   3237 ****       254.0000 369.7500 -70.2500 Du        
   3238 ****       254.0000 369.7500 -70.0000 Du        
   3239 ****       254.2500 368.2500 -71.5000 Du        
   3240 ****       254.2500 368.2500 -71.2500 Du        
   3241 ****       254.2500 368.2500 -71.0000 Du        
   3242 ****       254.2500 368.5000 -71.5000 Du        
   3243 ****       254.2500 368.5000 -71.2500 Du        
   3244 ****       254.2500 368.5000 -71.0000 Du        
   3245 ****       254.2500 368.7500 -72.0000 Du        
   3246 ****       254.2500 368.7500 -71.7500 Du        
   3247 ****       254.2500 368.7500 -71.5000 Du        
   3248 ****       254.2500 368.7500 -71.2500 Du        
   3249 ****       254.2500 368.7500 -71.0000 Du        
   3250 ****       254.2500 368.7500 -70.7500 Du        
   3251 ****       254.2500 369.0000 -72.5000 Du        
   3252 ****       254.2500 369.0000 -72.2500 Du        
   3253 ****       254.2500 369.0000 -72.0000 Du        
   3254 ****       254.2500 369.0000 -71.7500 Du        
   3255 ****       254.2500 369.0000 -71.5000 Du        
   3256 ****       254.2500 369.0000 -71.2500 Du        
   3257 ****       254.2500 369.0000 -71.0000 Du        
   3258 ****       254.2500 369.0000 -70.7500 Du        
   3259 ****       254.2500 369.2500 -72.5000 Du        
   3260 ****       254.2500 369.2500 -72.2500 Du        
   3261 ****       254.2500 369.2500 -72.0000 Du        
   3262 ****       254.2500 369.2500 -71.7500 Du        
   3263 ****       254.2500 369.2500 -71.5000 Du        
   3264 ****       254.2500 369.2500 -71.2500 Du        
   3265 ****       254.2500 369.2500 -71.0000 Du        
   3266 ****       254.2500 369.2500 -70.7500 Du        
   3267 ****       254.2500 369.5000 -72.2500 Du        
   3268 ****       254.2500 369.5000 -72.0000 Du        
   3269 ****       254.2500 369.5000 -71.7500 Du        
   3270 ****       254.2500 369.5000 -71.5000 Du        
   3271 ****       254.2500 369.5000 -71.2500 Du        
   3272 ****       254.2500 369.5000 -71.0000 Du        
   3273 ****       254.2500 369.5000 -70.7500 Du        
   3274 ****       254.2500 369.7500 -72.2500 Du        
   3275 ****       254.2500 369.7500 -72.0000 Du        
   3276 ****       254.2500 369.7500 -71.7500 Du        
   3277 ****       254.2500 369.7500 -71.5000 Du        
   3278 ****       254.2500 369.7500 -71.2500 Du        
   3279 ****       254.2500 369.7500 -71.0000 Du        
   3280 ****       254.2500 369.7500 -70.7500 Du        
   3281 ****       254.2500 369.7500 -70.5000 Du        
   3282 ****       254.5000 368.0000 -71.7500 Du        
   3283 ****       254.5000 368.0000 -71.5000 Du        
   3284 ****       254.5000 368.0000 -71.2500 Du        
   3285 ****       254.5000 368.0000 -71.0000 Du        
   3286 ****       254.5000 368.2500 -72.2500 Du        
   3287 ****       254.5000 368.2500 -72.0000 Du        
   3288 ****       254.5000 368.2500 -71.7500 Du        
   3289 ****       254.5000 368.2500 -71.5000 Du        
   3290 ****       254.5000 368.2500 -71.2500 Du        
   3291 ****       254.5000 368.2500 -71.0000 Du        
   3292 ****       254.5000 368.5000 -72.7500 Du        
   3293 ****       254.5000 368.5000 -72.5000 Du        
   3294 ****       254.5000 368.5000 -72.2500 Du        
   3295 ****       254.5000 368.5000 -72.0000 Du        
   3296 ****       254.5000 368.5000 -71.7500 Du        
   3297 ****       254.5000 368.5000 -71.5000 Du        
   3298 ****       254.5000 368.5000 -71.2500 Du        
   3299 ****       254.5000 368.5000 -71.0000 Du        
   3300 ****       254.5000 368.7500 -72.7500 Du        
   3301 ****       254.5000 368.7500 -72.5000 Du        
   3302 ****       254.5000 368.7500 -72.2500 Du        
   3303 ****       254.5000 368.7500 -72.0000 Du        
   3304 ****       254.5000 368.7500 -71.7500 Du        
   3305 ****       254.5000 368.7500 -71.5000 Du        
   3306 ****       254.5000 368.7500 -71.2500 Du        
   3307 ****       254.5000 368.7500 -71.0000 Du        
   3308 ****       254.5000 369.0000 -72.7500 Du        
   3309 ****       254.5000 369.0000 -72.5000 Du        
   3310 ****       254.5000 369.0000 -72.2500 Du        
   3311 ****       254.5000 369.0000 -72.0000 Du        
   3312 ****       254.5000 369.0000 -71.7500 Du        
   3313 ****       254.5000 369.0000 -71.5000 Du        
   3314 ****       254.5000 369.0000 -71.2500 Du        
   3315 ****       254.5000 369.0000 -71.0000 Du        
   3316 ****       254.5000 369.2500 -72.7500 Du        
   3317 ****       254.5000 369.2500 -72.5000 Du        
   3318 ****       254.5000 369.2500 -72.2500 Du        
   3319 ****       254.5000 369.2500 -72.0000 Du        
   3320 ****       254.5000 369.2500 -71.7500 Du        
   3321 ****       254.5000 369.2500 -71.2500 Du        
   3322 ****       254.5000 369.5000 -72.5000 Du        
   3323 ****       254.5000 369.5000 -72.2500 Du        
   3324 ****       254.5000 369.5000 -72.0000 Du        
   3325 ****       254.5000 369.7500 -72.5000 Du        
   3326 ****       254.5000 369.7500 -72.2500 Du        
   3327 ****       254.7500 367.7500 -72.0000 Du        
   3328 ****       254.7500 367.7500 -71.7500 Du        
   3329 ****       254.7500 367.7500 -71.5000 Du        
   3330 ****       254.7500 367.7500 -71.2500 Du        
   3331 ****       254.7500 368.0000 -72.7500 Du        
   3332 ****       254.7500 368.0000 -72.5000 Du        
   3333 ****       254.7500 368.0000 -72.2500 Du        
   3334 ****       254.7500 368.0000 -72.0000 Du        
   3335 ****       254.7500 368.0000 -71.7500 Du        
   3336 ****       254.7500 368.0000 -71.5000 Du        
   3337 ****       254.7500 368.0000 -71.2500 Du        
   3338 ****       254.7500 368.2500 -73.0000 Du        
   3339 ****       254.7500 368.2500 -72.7500 Du        
   3340 ****       254.7500 368.2500 -72.5000 Du        
   3341 ****       254.7500 368.2500 -72.2500 Du        
   3342 ****       254.7500 368.2500 -72.0000 Du        
   3343 ****       254.7500 368.2500 -71.7500 Du        
   3344 ****       254.7500 368.2500 -71.5000 Du        
   3345 ****       254.7500 368.2500 -71.2500 Du        
   3346 ****       254.7500 368.5000 -73.0000 Du        
   3347 ****       254.7500 368.5000 -72.7500 Du        
   3348 ****       254.7500 368.5000 -72.5000 Du        
   3349 ****       254.7500 368.5000 -72.2500 Du        
   3350 ****       254.7500 368.5000 -72.0000 Du        
   3351 ****       254.7500 368.7500 -73.0000 Du        
   3352 ****       254.7500 368.7500 -72.7500 Du        
   3353 ****       254.7500 368.7500 -72.5000 Du        
   3354 ****       254.7500 368.7500 -72.2500 Du        
   3355 ****       254.7500 369.0000 -73.0000 Du        
   3356 ****       254.7500 369.0000 -72.7500 Du        
   3357 ****       254.7500 369.0000 -72.5000 Du        
   3358 ****       254.7500 369.2500 -72.7500 Du        
   3359 ****       255.0000 367.7500 -72.7500 Du        
   3360 ****       255.0000 367.7500 -72.2500 Du        
   3361 ****       255.0000 367.7500 -72.0000 Du        
   3362 ****       255.0000 367.7500 -71.7500 Du        
   3363 ****       255.0000 368.0000 -73.2500 Du        
   3364 ****       255.0000 368.0000 -73.0000 Du        
   3365 ****       255.0000 368.0000 -72.7500 Du        
   3366 ****       255.0000 368.0000 -72.5000 Du        
   3367 ****       255.0000 368.0000 -72.2500 Du        
   3368 ****       255.0000 368.0000 -72.0000 Du        
   3369 ****       255.0000 368.0000 -71.7500 Du        
   3370 ****       255.0000 368.2500 -73.2500 Du        
   3371 ****       255.0000 368.2500 -73.0000 Du        
   3372 ****       255.0000 368.2500 -72.7500 Du        
   3373 ****       255.0000 368.2500 -72.5000 Du        
   3374 ****       255.0000 368.5000 -73.2500 Du        
   3375 ****       255.0000 368.5000 -73.0000 Du        
   3376 ****       255.0000 368.5000 -72.7500 Du        
   3377 ****       255.0000 368.7500 -73.0000 Du        
   3378 ****       255.2500 368.0000 -73.2500 Du        
   3379 ****       255.2500 368.0000 -73.0000 Du        
   3380 ****       255.2500 368.0000 -72.7500 Du        
   3381 ****       255.2500 368.2500 -73.2500 Du        
   3382 ****       255.2500 368.2500 -73.0000 Du        
