#       Name:                CT1002167954
#       Creating user name   hitesit
#       Creation time:       Sun Apr 16 02:26:48 2023


#       File generated by GOLD software.
#

@<TRIPOS>MOLECULE
CT1002167954|ligand_prepared|mol2|1|dock3
    29    30     1
SMALL
NO_CHARGES


@<TRIPOS>ATOM
      1 C1         248.5734 364.7183 -68.1036 C.3            1 RES1               0.0000
      2 C2         248.3471 364.1915 -66.6719 C.ar           1 RES1               0.0000
      3 C3         247.5960 363.9614 -68.9981 C.2            1 RES1               0.0000
      4 C4         248.3294 366.2223 -68.0484 C.2            1 RES1               0.0000
      5 C5         250.0068 364.4861 -68.6356 C.3            1 RES1               0.0000
      6 C6         248.8505 362.9532 -66.2846 C.ar           1 RES1               0.0000
      7 C7         247.6406 364.9322 -65.7281 C.ar           1 RES1               0.0000
      8 N8         246.5074 364.6402 -69.4608 N.am           1 RES1               0.0000
      9 O9         247.7571 362.7760 -69.2612 O.2            1 RES1               0.0000
     10 N10        247.2594 366.7251 -68.7413 N.am           1 RES1               0.0000
     11 O11        249.0443 366.9744 -67.3976 O.2            1 RES1               0.0000
     12 C12        250.2793 365.1526 -69.9749 C.3            1 RES1               0.0000
     13 C13        248.6572 362.4740 -64.9996 C.ar           1 RES1               0.0000
     14 C14        247.4482 364.4510 -64.4436 C.ar           1 RES1               0.0000
     15 C15        246.3194 365.9984 -69.4199 C.2            1 RES1               0.0000
     16 C16        247.9564 363.2226 -64.0782 C.ar           1 RES1               0.0000
     17 O17        245.3545 366.5184 -69.9728 O.2            1 RES1               0.0000
     18 H18        250.7233 364.8688 -67.8984 H              1 RES1               0.0000
     19 H19        250.1751 363.4068 -68.7377 H              1 RES1               0.0000
     20 H20        249.4025 362.3488 -66.9967 H              1 RES1               0.0000
     21 H21        247.2308 365.9008 -65.9936 H              1 RES1               0.0000
     22 H22        245.7644 364.0868 -69.8755 H              1 RES1               0.0000
     23 H23        247.1540 367.7346 -68.7522 H              1 RES1               0.0000
     24 H24        251.2985 364.9582 -70.3022 H              1 RES1               0.0000
     25 H25        249.6008 364.7767 -70.7379 H              1 RES1               0.0000
     26 H26        250.1459 366.2301 -69.9036 H              1 RES1               0.0000
     27 H27        249.0580 361.5060 -64.7173 H              1 RES1               0.0000
     28 H28        246.8954 365.0433 -63.7219 H              1 RES1               0.0000
     29 H29        247.8054 362.8472 -63.0714 H              1 RES1               0.0000
@<TRIPOS>BOND
    1    1    2 1     
    2    1    3 1     
    3    1    4 1     
    4    1    5 1     
    5    2    6 ar    
    6    2    7 ar    
    7    3    8 1     
    8    3    9 2     
    9    4   10 1     
   10    4   11 2     
   11    5   12 1     
   12    5   18 1     
   13    5   19 1     
   14    6   13 ar    
   15    6   20 1     
   16    7   14 ar    
   17    7   21 1     
   18    8   15 1     
   19    8   22 1     
   20   10   15 1     
   21   10   23 1     
   22   12   24 1     
   23   12   25 1     
   24   12   26 1     
   25   13   16 ar    
   26   13   27 1     
   27   14   16 ar    
   28   14   28 1     
   29   15   17 2     
   30   16   29 1     
@<TRIPOS>SUBSTRUCTURE
      1 RES1           1
@<TRIPOS>SET
DONOR_HYDROGENS      STATIC     ATOMS    <user>   **** ""
2 22 23
ATOM$RED        STATIC     ATOMS    COLORGROUP SYSTEM
2 22 23
@<TRIPOS>COMMENT
> <Gold.Version>
2022.3.0

> <Gold.Id.Protein>
unknown|7ts3_clean|pdb

> <Gold.Protein.RotatedTorsions>
[ 9495 9432 9431 9429 ] final   41.82 input   59.98 | X-H torsion
[ 7831 7798 7797 7794 ] final  -57.53 input   59.99 | X-H torsion

> <Gold.Protein.ActiveResidues>
 ASP403  THR404  LEU406  ILE407  TYR408  ALA410  LYS411  TRP414  GLN425  TRP426 
 SER427  LYS428  LEU429  GLN430  VAL431  PHE432  ASP433  TYR453  SER462  ALA463 
 ILE464 

> <Gold.Protein.RotatedAtoms>
  246.0623  355.2211  -68.5909 H   0  0  0  0  0  0  0  0  0  0  0  0  # atno 7831 bound_to 7798
  249.6788  366.1952  -62.3255 H   0  0  0  0  0  0  0  0  0  0  0  0  # atno 9495 bound_to 9432
  249.3033  365.1926  -61.0998 LP  0  0  0  0  0  0  0  0  0  0  0  0  # atno 27287 bound_to 9432
  250.2741  364.6806  -62.3090 LP  0  0  0  0  0  0  0  0  0  0  0  0  # atno 27288 bound_to 9432
  244.9272  355.7890  -69.6097 LP  0  0  0  0  0  0  0  0  0  0  0  0  # atno 27293 bound_to 7798
  245.7172  356.8115  -68.6111 LP  0  0  0  0  0  0  0  0  0  0  0  0  # atno 27294 bound_to 7798

> <Gold.Score>
     Fitness  S(hb_ext) S(vdw_ext)  S(hb_int)    S(int)      intcor
     30.51       6.35      18.43       0.00      -1.18      -0.76

> <Gold.Goldscore.Fitness>
30.5145

> <Gold.Goldscore.Internal.Vdw>
-1.5044

> <Gold.Goldscore.Internal.Torsion>
-0.4428

> <Gold.Goldscore.External.Vdw>
18.4350

> <Gold.Goldscore.Internal.HBond>
0.0000

> <Gold.Goldscore.External.HBond>
6.3487

> <Gold.Goldscore.Internal.Correction>
-0.7650

> <Gold.Goldscore.Hbonds>
donor molecule, donor type, donor heavy atom, donor atom, acceptor molecule, acceptor atom, score
      P1  H  6685  6731       L1     9  1.00
      P1  H  8008  8059       L1    11  0.17

> <Gold.Goldscore.Internal.Vdw.Weighted>
-1.5044

> <Gold.Goldscore.Internal.Torsion.Weighted>
-0.4428

> <Gold.Goldscore.External.Vdw.Weighted>
25.3481

> <Gold.Goldscore.Internal.HBond.Weighted>
0.0000

> <Gold.Goldscore.External.HBond.Weighted>
6.3487

> <Gold.Goldscore.Internal.Correction.Weighted>
-0.7650

> <Gold.Rescore>
     Score     S(PLP)   S(hbond)     S(cho)   S(metal)  DE(clash)   DE(tors)     intcor
     25.48     -21.72       1.87       0.00       0.00       0.00       0.93       ----

> <Gold.PLP.Fitness>
25.4797

> <Gold.PLP.PLP>
-21.7173

> <Gold.PLP.part.hbond>
-1.8401

> <Gold.PLP.part.metal>
0.0000

> <Gold.PLP.part.buried>
-2.3616

> <Gold.PLP.part.nonpolar>
-18.7859

> <Gold.PLP.part.repulsive>
0.8964

> <Gold.PLP.ligand.clash>
0.0000

> <Gold.PLP.ligand.torsion>
0.9268

> <Gold.PLP.Chemscore.Hbond>
1.8720

> <Gold.PLP.Chemscore.CHOScore>
0.0000

> <Gold.PLP.Chemscore.Metal>
0.0000

> <Gold.Chemscore.Hbonds>
donor molecule, donor type, donor heavy atom, donor atom, acceptor molecule, acceptor atom, score
      P1  H  6685  6731       L1     9  0.76
      P1  H  8008  8059       L1    11  0.72

> <Gold.PLP.Chemscore.Internal.Correction>
   9.000000E+99

