#       Name:                CT1002167954
#       Creating user name   hitesit
#       Creation time:       Sun Apr 16 02:26:51 2023


#       File generated by GOLD software.
#

@<TRIPOS>MOLECULE
CT1002167954|ligand_prepared|mol2|1|dock10
    29    30     1
SMALL
NO_CHARGES


@<TRIPOS>ATOM
      1 C1         246.8311 363.0011 -65.2755 C.3            1 RES1               0.0000
      2 C2         247.7434 362.4177 -64.1773 C.ar           1 RES1               0.0000
      3 C3         247.5992 364.1634 -65.8978 C.2            1 RES1               0.0000
      4 C4         246.5422 361.8578 -66.2420 C.2            1 RES1               0.0000
      5 C5         245.4787 363.5331 -64.7468 C.3            1 RES1               0.0000
      6 C6         248.9011 361.7223 -64.5133 C.ar           1 RES1               0.0000
      7 C7         247.4425 362.5687 -62.8263 C.ar           1 RES1               0.0000
      8 N8         248.1285 363.9775 -67.1409 N.am           1 RES1               0.0000
      9 O9         247.7717 365.2132 -65.2909 O.2            1 RES1               0.0000
     10 N10        247.0302 361.9574 -67.5186 N.am           1 RES1               0.0000
     11 O11        245.9105 360.8640 -65.9047 O.2            1 RES1               0.0000
     12 C12        244.5538 364.0486 -65.8381 C.3            1 RES1               0.0000
     13 C13        249.7296 361.1994 -63.5342 C.ar           1 RES1               0.0000
     14 C14        248.2723 362.0448 -61.8488 C.ar           1 RES1               0.0000
     15 C15        247.8364 362.9512 -68.0029 C.2            1 RES1               0.0000
     16 C16        249.4160 361.3607 -62.2015 C.ar           1 RES1               0.0000
     17 O17        248.2803 362.9433 -69.1474 O.2            1 RES1               0.0000
     18 H18        244.9698 362.7268 -64.2044 H              1 RES1               0.0000
     19 H19        245.6725 364.3454 -64.0355 H              1 RES1               0.0000
     20 H20        249.1629 361.5832 -65.5570 H              1 RES1               0.0000
     21 H21        246.5473 363.1024 -62.5255 H              1 RES1               0.0000
     22 H22        248.8041 364.6651 -67.4589 H              1 RES1               0.0000
     23 H23        246.7680 361.2226 -68.1680 H              1 RES1               0.0000
     24 H24        243.6196 364.4098 -65.4132 H              1 RES1               0.0000
     25 H25        245.0182 364.8686 -66.3819 H              1 RES1               0.0000
     26 H26        244.3196 363.2595 -66.5498 H              1 RES1               0.0000
     27 H27        250.6279 360.6606 -63.8171 H              1 RES1               0.0000
     28 H28        248.0212 362.1736 -60.8011 H              1 RES1               0.0000
     29 H29        250.0654 360.9513 -61.4347 H              1 RES1               0.0000
@<TRIPOS>BOND
    1    1    2 1     
    2    1    3 1     
    3    1    4 1     
    4    1    5 1     
    5    2    6 ar    
    6    2    7 ar    
    7    3    8 1     
    8    3    9 2     
    9    4   10 1     
   10    4   11 2     
   11    5   12 1     
   12    5   18 1     
   13    5   19 1     
   14    6   13 ar    
   15    6   20 1     
   16    7   14 ar    
   17    7   21 1     
   18    8   15 1     
   19    8   22 1     
   20   10   15 1     
   21   10   23 1     
   22   12   24 1     
   23   12   25 1     
   24   12   26 1     
   25   13   16 ar    
   26   13   27 1     
   27   14   16 ar    
   28   14   28 1     
   29   15   17 2     
   30   16   29 1     
@<TRIPOS>SUBSTRUCTURE
      1 RES1           1
@<TRIPOS>SET
DONOR_HYDROGENS      STATIC     ATOMS    <user>   **** ""
2 22 23
ATOM$RED        STATIC     ATOMS    COLORGROUP SYSTEM
2 22 23
@<TRIPOS>COMMENT
> <Gold.Version>
2022.3.0

> <Gold.Id.Protein>
unknown|7ts3_clean|pdb

> <Gold.Protein.RotatedTorsions>
[ 9495 9432 9431 9429 ] final   56.02 input   59.98 | X-H torsion
[ 7831 7798 7797 7794 ] final  -42.38 input   59.99 | X-H torsion

> <Gold.Protein.ActiveResidues>
 ASP403  THR404  LEU406  ILE407  TYR408  ALA410  LYS411  TRP414  GLN425  TRP426 
 SER427  LYS428  LEU429  GLN430  VAL431  PHE432  ASP433  TYR453  SER462  ALA463 
 ILE464 

> <Gold.Protein.RotatedAtoms>
  246.1636  355.3993  -68.4533 H   0  0  0  0  0  0  0  0  0  0  0  0  # atno 7831 bound_to 7798
  249.8176  366.0976  -62.4829 H   0  0  0  0  0  0  0  0  0  0  0  0  # atno 9495 bound_to 9432
  249.2323  365.4129  -61.1276 LP  0  0  0  0  0  0  0  0  0  0  0  0  # atno 27287 bound_to 9432
  250.2052  364.5586  -62.1227 LP  0  0  0  0  0  0  0  0  0  0  0  0  # atno 27288 bound_to 9432
  245.0018  355.5535  -69.5826 LP  0  0  0  0  0  0  0  0  0  0  0  0  # atno 27293 bound_to 7798
  245.5406  356.8676  -68.7767 LP  0  0  0  0  0  0  0  0  0  0  0  0  # atno 27294 bound_to 7798

> <Gold.Score>
     Fitness  S(hb_ext) S(vdw_ext)  S(hb_int)    S(int)      intcor
     34.70       4.53      22.08       0.00      -0.19      -0.76

> <Gold.Goldscore.Fitness>
34.7047

> <Gold.Goldscore.Internal.Vdw>
-0.5668

> <Gold.Goldscore.Internal.Torsion>
-0.3783

> <Gold.Goldscore.External.Vdw>
22.0786

> <Gold.Goldscore.Internal.HBond>
0.0000

> <Gold.Goldscore.External.HBond>
4.5333

> <Gold.Goldscore.Internal.Correction>
-0.7585

> <Gold.Goldscore.Hbonds>
donor molecule, donor type, donor heavy atom, donor atom, acceptor molecule, acceptor atom, score
      P1  H  6685  6731       L1    17  0.76

> <Gold.Goldscore.Internal.Vdw.Weighted>
-0.5668

> <Gold.Goldscore.Internal.Torsion.Weighted>
-0.3783

> <Gold.Goldscore.External.Vdw.Weighted>
30.3581

> <Gold.Goldscore.Internal.HBond.Weighted>
0.0000

> <Gold.Goldscore.External.HBond.Weighted>
4.5333

> <Gold.Goldscore.Internal.Correction.Weighted>
-0.7585

> <Gold.Rescore>
     Score     S(PLP)   S(hbond)     S(cho)   S(metal)  DE(clash)   DE(tors)     intcor
     30.57     -28.21       1.00       0.00       0.00       0.00       0.32       ----

> <Gold.PLP.Fitness>
30.5687

> <Gold.PLP.PLP>
-28.2137

> <Gold.PLP.part.hbond>
-1.0000

> <Gold.PLP.part.metal>
0.0000

> <Gold.PLP.part.buried>
0.3863

> <Gold.PLP.part.nonpolar>
-29.5050

> <Gold.PLP.part.repulsive>
1.6931

> <Gold.PLP.ligand.clash>
0.0000

> <Gold.PLP.ligand.torsion>
0.3225

> <Gold.PLP.Chemscore.Hbond>
1.0000

> <Gold.PLP.Chemscore.CHOScore>
0.0000

> <Gold.PLP.Chemscore.Metal>
0.0000

> <Gold.Chemscore.Hbonds>
donor molecule, donor type, donor heavy atom, donor atom, acceptor molecule, acceptor atom, score
      P1  H  6685  6731       L1    17  1.00

> <Gold.PLP.Chemscore.Internal.Correction>
   9.000000E+99

