#       Name:                CT1002167954
#       Creating user name   hitesit
#       Creation time:       Sun Apr 16 02:26:50 2023


#       File generated by GOLD software.
#

@<TRIPOS>MOLECULE
CT1002167954|ligand_prepared|mol2|1|dock9
    29    30     1
SMALL
NO_CHARGES


@<TRIPOS>ATOM
      1 C1         246.9244 360.4279 -75.1890 C.3            1 RES1               0.0000
      2 C2         247.8853 361.6218 -75.3619 C.ar           1 RES1               0.0000
      3 C3         247.0775 359.5698 -76.4414 C.2            1 RES1               0.0000
      4 C4         247.3415 359.7278 -73.9003 C.2            1 RES1               0.0000
      5 C5         245.4391 360.8360 -75.0517 C.3            1 RES1               0.0000
      6 C6         247.9091 362.6533 -74.4279 C.ar           1 RES1               0.0000
      7 C7         248.7541 361.7043 -76.4468 C.ar           1 RES1               0.0000
      8 N8         247.7561 358.3929 -76.3218 N.am           1 RES1               0.0000
      9 O9         246.6438 359.9388 -77.5258 O.2            1 RES1               0.0000
     10 N10        247.8468 358.4575 -73.9943 N.am           1 RES1               0.0000
     11 O11        247.2526 360.2709 -72.8061 O.2            1 RES1               0.0000
     12 C12        244.4808 359.6563 -75.0062 C.3            1 RES1               0.0000
     13 C13        248.7723 363.7269 -74.5717 C.ar           1 RES1               0.0000
     14 C14        249.6163 362.7790 -76.5887 C.ar           1 RES1               0.0000
     15 C15        248.1017 357.7700 -75.1495 C.2            1 RES1               0.0000
     16 C16        249.6267 363.7903 -75.6518 C.ar           1 RES1               0.0000
     17 O17        248.6084 356.6518 -75.1551 O.2            1 RES1               0.0000
     18 H18        245.3180 361.4249 -74.1342 H              1 RES1               0.0000
     19 H19        245.1693 361.4774 -75.8999 H              1 RES1               0.0000
     20 H20        247.2423 362.6219 -73.5727 H              1 RES1               0.0000
     21 H21        248.7625 360.9208 -77.1968 H              1 RES1               0.0000
     22 H22        248.0323 357.9335 -77.1838 H              1 RES1               0.0000
     23 H23        248.0519 357.9802 -73.1223 H              1 RES1               0.0000
     24 H24        243.4524 359.9983 -74.9094 H              1 RES1               0.0000
     25 H25        244.5564 359.0626 -75.9148 H              1 RES1               0.0000
     26 H26        244.7042 359.0104 -74.1596 H              1 RES1               0.0000
     27 H27        248.7756 364.5209 -73.8322 H              1 RES1               0.0000
     28 H28        250.2866 362.8251 -77.4407 H              1 RES1               0.0000
     29 H29        250.3030 364.6312 -75.7640 H              1 RES1               0.0000
@<TRIPOS>BOND
    1    1    2 1     
    2    1    3 1     
    3    1    4 1     
    4    1    5 1     
    5    2    6 ar    
    6    2    7 ar    
    7    3    8 1     
    8    3    9 2     
    9    4   10 1     
   10    4   11 2     
   11    5   12 1     
   12    5   18 1     
   13    5   19 1     
   14    6   13 ar    
   15    6   20 1     
   16    7   14 ar    
   17    7   21 1     
   18    8   15 1     
   19    8   22 1     
   20   10   15 1     
   21   10   23 1     
   22   12   24 1     
   23   12   25 1     
   24   12   26 1     
   25   13   16 ar    
   26   13   27 1     
   27   14   16 ar    
   28   14   28 1     
   29   15   17 2     
   30   16   29 1     
@<TRIPOS>SUBSTRUCTURE
      1 RES1           1
@<TRIPOS>SET
DONOR_HYDROGENS      STATIC     ATOMS    <user>   **** ""
2 22 23
ATOM$RED        STATIC     ATOMS    COLORGROUP SYSTEM
2 22 23
@<TRIPOS>COMMENT
> <Gold.Version>
2022.3.0

> <Gold.Id.Protein>
unknown|7ts3_clean|pdb

> <Gold.Protein.RotatedTorsions>
[ 9495 9432 9431 9429 ] final -141.63 input   59.98 | X-H torsion
[ 7831 7798 7797 7794 ] final  131.98 input   59.99 | X-H torsion

> <Gold.Protein.ActiveResidues>
 ASP403  THR404  LEU406  ILE407  TYR408  ALA410  LYS411  TRP414  GLN425  TRP426 
 SER427  LYS428  LEU429  GLN430  VAL431  PHE432  ASP433  TYR453  SER462  ALA463 
 ILE464 

> <Gold.Protein.RotatedAtoms>
  245.0119  356.5504  -69.3743 H   0  0  0  0  0  0  0  0  0  0  0  0  # atno 7831 bound_to 7798
  249.8608  364.5058  -61.5402 H   0  0  0  0  0  0  0  0  0  0  0  0  # atno 9495 bound_to 9432
  250.1777  365.5756  -62.7250 LP  0  0  0  0  0  0  0  0  0  0  0  0  # atno 27287 bound_to 9432
  249.2164  365.9987  -61.4745 LP  0  0  0  0  0  0  0  0  0  0  0  0  # atno 27288 bound_to 9432
  246.1697  356.2388  -68.2737 LP  0  0  0  0  0  0  0  0  0  0  0  0  # atno 27293 bound_to 7798
  245.5321  355.0235  -69.1585 LP  0  0  0  0  0  0  0  0  0  0  0  0  # atno 27294 bound_to 7798

> <Gold.Score>
     Fitness  S(hb_ext) S(vdw_ext)  S(hb_int)    S(int)      intcor
     26.66       6.00      16.61       0.00      -2.17      -0.76

> <Gold.Goldscore.Fitness>
26.6621

> <Gold.Goldscore.Internal.Vdw>
-2.5180

> <Gold.Goldscore.Internal.Torsion>
-0.4126

> <Gold.Goldscore.External.Vdw>
16.6066

> <Gold.Goldscore.Internal.HBond>
0.0000

> <Gold.Goldscore.External.HBond>
6.0000

> <Gold.Goldscore.Internal.Correction>
-0.7585

> <Gold.Goldscore.Hbonds>
donor molecule, donor type, donor heavy atom, donor atom, acceptor molecule, acceptor atom, score
      P1  H  6685  6732       L1    11  1.00

> <Gold.Goldscore.Internal.Vdw.Weighted>
-2.5180

> <Gold.Goldscore.Internal.Torsion.Weighted>
-0.4126

> <Gold.Goldscore.External.Vdw.Weighted>
22.8341

> <Gold.Goldscore.Internal.HBond.Weighted>
0.0000

> <Gold.Goldscore.External.HBond.Weighted>
6.0000

> <Gold.Goldscore.Internal.Correction.Weighted>
-0.7585

> <Gold.Rescore>
     Score     S(PLP)   S(hbond)     S(cho)   S(metal)  DE(clash)   DE(tors)     intcor
     21.83     -20.26       1.00       0.00       0.00       1.25       0.09       ----

> <Gold.PLP.Fitness>
21.8327

> <Gold.PLP.PLP>
-20.2615

> <Gold.PLP.part.hbond>
-1.0000

> <Gold.PLP.part.metal>
0.0000

> <Gold.PLP.part.buried>
-0.5785

> <Gold.PLP.part.nonpolar>
-20.0837

> <Gold.PLP.part.repulsive>
0.3135

> <Gold.PLP.ligand.clash>
1.2474

> <Gold.PLP.ligand.torsion>
0.0907

> <Gold.PLP.Chemscore.Hbond>
1.0000

> <Gold.PLP.Chemscore.CHOScore>
0.0000

> <Gold.PLP.Chemscore.Metal>
0.0000

> <Gold.Chemscore.Hbonds>
donor molecule, donor type, donor heavy atom, donor atom, acceptor molecule, acceptor atom, score
      P1  H  6685  6732       L1    11  1.00

> <Gold.PLP.Chemscore.Internal.Correction>
   9.000000E+99

