#       Name:                GA Fitting Points
#       Creating user name   hitesit
#       Creation time:       Sun Apr 16 02:28:00 2023


#       Fitting Points Used by GA Software.
#

@<TRIPOS>MOLECULE
GA Fitting Points
  6328    0    0
SMALL
NO_CHARGES


@<TRIPOS>ATOM
      1 ****       249.0000 322.7500 -61.5000 Du        
      2 ****       249.0000 322.7500 -61.2500 Du        
      3 ****       249.0000 322.7500 -61.0000 Du        
      4 ****       249.0000 322.7500 -60.7500 Du        
      5 ****       249.0000 322.7500 -60.5000 Du        
      6 ****       249.0000 323.0000 -61.7500 Du        
      7 ****       249.0000 323.0000 -61.5000 Du        
      8 ****       249.0000 323.0000 -61.2500 Du        
      9 ****       249.0000 323.0000 -61.0000 Du        
     10 ****       249.0000 323.0000 -60.7500 Du        
     11 ****       249.0000 323.0000 -60.5000 Du        
     12 ****       249.2500 322.5000 -61.0000 Du        
     13 ****       249.2500 322.7500 -61.7500 Du        
     14 ****       249.2500 322.7500 -61.5000 Du        
     15 ****       249.2500 322.7500 -61.2500 Du        
     16 ****       249.2500 322.7500 -61.0000 Du        
     17 ****       249.2500 322.7500 -60.7500 Du        
     18 ****       249.2500 322.7500 -60.5000 Du        
     19 ****       249.2500 323.0000 -61.7500 Du        
     20 ****       249.2500 323.0000 -61.5000 Du        
     21 ****       249.2500 323.0000 -61.2500 Du        
     22 ****       249.2500 323.0000 -61.0000 Du        
     23 ****       249.2500 323.0000 -60.7500 Du        
     24 ****       249.2500 323.0000 -60.5000 Du        
     25 ****       249.5000 322.5000 -61.0000 Du        
     26 ****       249.5000 322.5000 -60.7500 Du        
     27 ****       249.5000 322.7500 -61.2500 Du        
     28 ****       249.5000 322.7500 -61.0000 Du        
     29 ****       249.5000 322.7500 -60.7500 Du        
     30 ****       249.5000 322.7500 -60.5000 Du        
     31 ****       249.5000 323.0000 -61.2500 Du        
     32 ****       249.5000 323.0000 -61.0000 Du        
     33 ****       249.5000 323.0000 -60.7500 Du        
     34 ****       249.5000 323.5000 -62.5000 Du        
     35 ****       249.5000 323.5000 -62.2500 Du        
     36 ****       249.5000 323.5000 -62.0000 Du        
     37 ****       249.7500 322.5000 -61.0000 Du        
     38 ****       249.7500 322.5000 -60.7500 Du        
     39 ****       249.7500 322.5000 -60.5000 Du        
     40 ****       249.7500 322.7500 -61.2500 Du        
     41 ****       249.7500 322.7500 -61.0000 Du        
     42 ****       249.7500 322.7500 -60.7500 Du        
     43 ****       249.7500 322.7500 -60.5000 Du        
     44 ****       249.7500 323.5000 -63.2500 Du        
     45 ****       249.7500 323.5000 -63.0000 Du        
     46 ****       249.7500 323.5000 -62.5000 Du        
     47 ****       249.7500 323.5000 -62.2500 Du        
     48 ****       250.0000 322.2500 -60.5000 Du        
     49 ****       250.0000 322.5000 -60.7500 Du        
     50 ****       250.0000 322.5000 -60.5000 Du        
     51 ****       250.0000 322.7500 -60.7500 Du        
     52 ****       250.0000 322.7500 -60.5000 Du        
     53 ****       250.0000 323.5000 -64.0000 Du        
     54 ****       250.0000 323.5000 -63.7500 Du        
     55 ****       250.0000 323.5000 -63.5000 Du        
     56 ****       250.0000 323.5000 -63.2500 Du        
     57 ****       250.0000 323.5000 -63.0000 Du        
     58 ****       250.0000 323.5000 -62.7500 Du        
     59 ****       250.0000 323.5000 -62.2500 Du        
     60 ****       250.0000 323.7500 -63.7500 Du        
     61 ****       250.0000 323.7500 -63.5000 Du        
     62 ****       250.0000 323.7500 -63.2500 Du        
     63 ****       250.0000 323.7500 -63.0000 Du        
     64 ****       250.0000 323.7500 -62.7500 Du        
     65 ****       250.0000 324.0000 -63.7500 Du        
     66 ****       250.0000 324.0000 -63.5000 Du        
     67 ****       250.0000 324.0000 -63.2500 Du        
     68 ****       250.0000 324.0000 -63.0000 Du        
     69 ****       250.0000 324.0000 -62.7500 Du        
     70 ****       250.2500 322.0000 -60.5000 Du        
     71 ****       250.2500 322.2500 -60.5000 Du        
     72 ****       250.2500 322.2500 -60.2500 Du        
     73 ****       250.2500 322.5000 -61.0000 Du        
     74 ****       250.2500 322.5000 -60.7500 Du        
     75 ****       250.2500 322.5000 -60.5000 Du        
     76 ****       250.2500 322.5000 -60.2500 Du        
     77 ****       250.2500 323.5000 -63.7500 Du        
     78 ****       250.2500 323.5000 -63.5000 Du        
     79 ****       250.2500 323.5000 -63.2500 Du        
     80 ****       250.2500 323.5000 -63.0000 Du        
     81 ****       250.2500 323.7500 -63.7500 Du        
     82 ****       250.2500 323.7500 -63.5000 Du        
     83 ****       250.2500 323.7500 -63.2500 Du        
     84 ****       250.2500 323.7500 -63.0000 Du        
     85 ****       250.2500 323.7500 -62.7500 Du        
     86 ****       250.2500 324.0000 -63.7500 Du        
     87 ****       250.2500 324.0000 -63.5000 Du        
     88 ****       250.2500 324.0000 -63.2500 Du        
     89 ****       250.2500 324.0000 -63.0000 Du        
     90 ****       250.2500 324.0000 -62.7500 Du        
     91 ****       250.5000 321.7500 -60.5000 Du        
     92 ****       250.5000 322.0000 -60.5000 Du        
     93 ****       250.5000 322.2500 -60.7500 Du        
     94 ****       250.5000 322.2500 -60.5000 Du        
     95 ****       250.5000 322.2500 -60.2500 Du        
     96 ****       250.5000 322.5000 -60.5000 Du        
     97 ****       250.5000 322.5000 -60.2500 Du        
     98 ****       250.5000 323.5000 -63.7500 Du        
     99 ****       250.5000 323.5000 -63.5000 Du        
    100 ****       250.5000 323.5000 -63.2500 Du        
    101 ****       250.5000 323.5000 -63.0000 Du        
    102 ****       250.5000 323.7500 -63.7500 Du        
    103 ****       250.5000 323.7500 -63.5000 Du        
    104 ****       250.5000 323.7500 -63.2500 Du        
    105 ****       250.5000 323.7500 -63.0000 Du        
    106 ****       250.5000 324.0000 -63.7500 Du        
    107 ****       250.5000 324.0000 -63.5000 Du        
    108 ****       250.5000 324.0000 -63.2500 Du        
    109 ****       250.5000 324.0000 -63.0000 Du        
    110 ****       250.5000 324.2500 -63.5000 Du        
    111 ****       250.5000 324.2500 -63.2500 Du        
    112 ****       250.5000 324.2500 -63.0000 Du        
    113 ****       250.5000 324.5000 -63.5000 Du        
    114 ****       250.5000 324.5000 -63.2500 Du        
    115 ****       250.5000 324.5000 -63.0000 Du        
    116 ****       250.7500 320.7500 -67.0000 Du        
    117 ****       250.7500 321.0000 -67.0000 Du        
    118 ****       250.7500 321.0000 -66.7500 Du        
    119 ****       250.7500 321.7500 -60.5000 Du        
    120 ****       250.7500 322.0000 -61.0000 Du        
    121 ****       250.7500 322.0000 -60.7500 Du        
    122 ****       250.7500 322.0000 -60.5000 Du        
    123 ****       250.7500 322.0000 -60.2500 Du        
    124 ****       250.7500 322.2500 -60.7500 Du        
    125 ****       250.7500 322.2500 -60.5000 Du        
    126 ****       250.7500 322.2500 -60.2500 Du        
    127 ****       250.7500 322.2500 -60.0000 Du        
    128 ****       250.7500 323.5000 -63.7500 Du        
    129 ****       250.7500 323.5000 -63.5000 Du        
    130 ****       250.7500 323.5000 -63.2500 Du        
    131 ****       250.7500 323.5000 -63.0000 Du        
    132 ****       250.7500 323.7500 -63.5000 Du        
    133 ****       250.7500 323.7500 -63.2500 Du        
    134 ****       250.7500 323.7500 -63.0000 Du        
    135 ****       250.7500 324.0000 -63.5000 Du        
    136 ****       250.7500 324.0000 -63.2500 Du        
    137 ****       250.7500 324.2500 -63.2500 Du        
    138 ****       251.0000 316.2500 -69.7500 Du        
    139 ****       251.0000 316.5000 -69.7500 Du        
    140 ****       251.0000 316.7500 -69.7500 Du        
    141 ****       251.0000 317.0000 -69.7500 Du        
    142 ****       251.0000 320.5000 -67.0000 Du        
    143 ****       251.0000 320.7500 -67.2500 Du        
    144 ****       251.0000 320.7500 -67.0000 Du        
    145 ****       251.0000 320.7500 -66.7500 Du        
    146 ****       251.0000 321.0000 -67.2500 Du        
    147 ****       251.0000 321.0000 -67.0000 Du        
    148 ****       251.0000 321.0000 -66.7500 Du        
    149 ****       251.0000 321.2500 -67.0000 Du        
    150 ****       251.0000 321.2500 -66.7500 Du        
    151 ****       251.0000 321.5000 -66.7500 Du        
    152 ****       251.0000 321.5000 -60.5000 Du        
    153 ****       251.0000 321.7500 -60.7500 Du        
    154 ****       251.0000 321.7500 -60.5000 Du        
    155 ****       251.0000 321.7500 -60.2500 Du        
    156 ****       251.0000 322.0000 -60.7500 Du        
    157 ****       251.0000 322.0000 -60.5000 Du        
    158 ****       251.0000 322.0000 -60.2500 Du        
    159 ****       251.0000 322.0000 -60.0000 Du        
    160 ****       251.0000 322.2500 -60.5000 Du        
    161 ****       251.0000 322.2500 -60.2500 Du        
    162 ****       251.0000 322.2500 -60.0000 Du        
    163 ****       251.0000 323.5000 -63.5000 Du        
    164 ****       251.0000 323.5000 -63.2500 Du        
    165 ****       251.0000 323.7500 -63.2500 Du        
    166 ****       251.2500 315.7500 -69.7500 Du        
    167 ****       251.2500 316.0000 -69.7500 Du        
    168 ****       251.2500 316.2500 -69.7500 Du        
    169 ****       251.2500 316.5000 -69.7500 Du        
    170 ****       251.2500 316.7500 -69.7500 Du        
    171 ****       251.2500 317.0000 -69.7500 Du        
    172 ****       251.2500 317.2500 -69.7500 Du        
    173 ****       251.2500 320.5000 -67.0000 Du        
    174 ****       251.2500 320.5000 -66.7500 Du        
    175 ****       251.2500 320.7500 -67.0000 Du        
    176 ****       251.2500 320.7500 -66.7500 Du        
    177 ****       251.2500 321.0000 -67.2500 Du        
    178 ****       251.2500 321.0000 -67.0000 Du        
    179 ****       251.2500 321.0000 -66.7500 Du        
    180 ****       251.2500 321.0000 -66.5000 Du        
    181 ****       251.2500 321.2500 -67.0000 Du        
    182 ****       251.2500 321.2500 -66.7500 Du        
    183 ****       251.2500 321.2500 -66.5000 Du        
    184 ****       251.2500 321.2500 -66.2500 Du        
    185 ****       251.2500 321.2500 -60.5000 Du        
    186 ****       251.2500 321.2500 -60.2500 Du        
    187 ****       251.2500 321.5000 -66.7500 Du        
    188 ****       251.2500 321.5000 -60.5000 Du        
    189 ****       251.2500 321.5000 -60.2500 Du        
    190 ****       251.2500 321.7500 -60.7500 Du        
    191 ****       251.2500 321.7500 -60.5000 Du        
    192 ****       251.2500 321.7500 -60.2500 Du        
    193 ****       251.2500 321.7500 -60.0000 Du        
    194 ****       251.2500 322.0000 -60.7500 Du        
    195 ****       251.2500 322.0000 -60.5000 Du        
    196 ****       251.2500 322.0000 -60.2500 Du        
    197 ****       251.2500 322.0000 -60.0000 Du        
    198 ****       251.2500 322.0000 -59.7500 Du        
    199 ****       251.2500 322.2500 -60.5000 Du        
    200 ****       251.2500 322.2500 -60.2500 Du        
    201 ****       251.2500 322.2500 -60.0000 Du        
    202 ****       251.2500 322.2500 -59.7500 Du        
    203 ****       251.5000 314.7500 -70.2500 Du        
    204 ****       251.5000 315.0000 -70.2500 Du        
    205 ****       251.5000 315.0000 -70.0000 Du        
    206 ****       251.5000 315.2500 -70.2500 Du        
    207 ****       251.5000 315.2500 -70.0000 Du        
    208 ****       251.5000 315.2500 -69.7500 Du        
    209 ****       251.5000 315.5000 -70.2500 Du        
    210 ****       251.5000 315.5000 -70.0000 Du        
    211 ****       251.5000 315.5000 -69.7500 Du        
    212 ****       251.5000 315.7500 -70.2500 Du        
    213 ****       251.5000 315.7500 -70.0000 Du        
    214 ****       251.5000 315.7500 -69.7500 Du        
    215 ****       251.5000 316.0000 -70.2500 Du        
    216 ****       251.5000 316.0000 -70.0000 Du        
    217 ****       251.5000 316.0000 -69.7500 Du        
    218 ****       251.5000 316.0000 -69.5000 Du        
    219 ****       251.5000 316.2500 -70.2500 Du        
    220 ****       251.5000 316.2500 -70.0000 Du        
    221 ****       251.5000 316.2500 -69.7500 Du        
    222 ****       251.5000 316.2500 -69.5000 Du        
    223 ****       251.5000 316.2500 -69.2500 Du        
    224 ****       251.5000 316.5000 -70.2500 Du        
    225 ****       251.5000 316.5000 -70.0000 Du        
    226 ****       251.5000 316.5000 -69.7500 Du        
    227 ****       251.5000 316.7500 -70.2500 Du        
    228 ****       251.5000 316.7500 -70.0000 Du        
    229 ****       251.5000 316.7500 -69.7500 Du        
    230 ****       251.5000 316.7500 -69.5000 Du        
    231 ****       251.5000 316.7500 -69.2500 Du        
    232 ****       251.5000 317.0000 -70.2500 Du        
    233 ****       251.5000 317.0000 -70.0000 Du        
    234 ****       251.5000 317.0000 -69.7500 Du        
    235 ****       251.5000 317.0000 -69.5000 Du        
    236 ****       251.5000 317.0000 -69.2500 Du        
    237 ****       251.5000 317.2500 -70.2500 Du        
    238 ****       251.5000 317.2500 -70.0000 Du        
    239 ****       251.5000 317.2500 -69.7500 Du        
    240 ****       251.5000 317.2500 -69.5000 Du        
    241 ****       251.5000 317.5000 -70.2500 Du        
    242 ****       251.5000 317.5000 -70.0000 Du        
    243 ****       251.5000 317.5000 -69.7500 Du        
    244 ****       251.5000 317.7500 -70.2500 Du        
    245 ****       251.5000 317.7500 -70.0000 Du        
    246 ****       251.5000 317.7500 -69.7500 Du        
    247 ****       251.5000 318.0000 -70.2500 Du        
    248 ****       251.5000 318.0000 -70.0000 Du        
    249 ****       251.5000 320.5000 -67.0000 Du        
    250 ****       251.5000 320.5000 -66.7500 Du        
    251 ****       251.5000 320.5000 -66.5000 Du        
    252 ****       251.5000 320.7500 -67.0000 Du        
    253 ****       251.5000 320.7500 -66.7500 Du        
    254 ****       251.5000 320.7500 -66.5000 Du        
    255 ****       251.5000 320.7500 -66.2500 Du        
    256 ****       251.5000 321.0000 -67.0000 Du        
    257 ****       251.5000 321.0000 -66.7500 Du        
    258 ****       251.5000 321.0000 -66.5000 Du        
    259 ****       251.5000 321.0000 -66.2500 Du        
    260 ****       251.5000 321.0000 -66.0000 Du        
    261 ****       251.5000 321.0000 -60.5000 Du        
    262 ****       251.5000 321.2500 -67.0000 Du        
    263 ****       251.5000 321.2500 -66.7500 Du        
    264 ****       251.5000 321.2500 -66.5000 Du        
    265 ****       251.5000 321.2500 -66.2500 Du        
    266 ****       251.5000 321.2500 -66.0000 Du        
    267 ****       251.5000 321.2500 -60.5000 Du        
    268 ****       251.5000 321.2500 -60.2500 Du        
    269 ****       251.5000 321.5000 -66.7500 Du        
    270 ****       251.5000 321.5000 -66.5000 Du        
    271 ****       251.5000 321.5000 -66.2500 Du        
    272 ****       251.5000 321.5000 -66.0000 Du        
    273 ****       251.5000 321.5000 -60.5000 Du        
    274 ****       251.5000 321.5000 -60.2500 Du        
    275 ****       251.5000 321.5000 -60.0000 Du        
    276 ****       251.5000 321.7500 -60.5000 Du        
    277 ****       251.5000 321.7500 -60.2500 Du        
    278 ****       251.5000 321.7500 -60.0000 Du        
    279 ****       251.5000 321.7500 -59.7500 Du        
    280 ****       251.5000 322.0000 -60.5000 Du        
    281 ****       251.5000 322.0000 -60.2500 Du        
    282 ****       251.5000 322.0000 -60.0000 Du        
    283 ****       251.5000 322.0000 -59.7500 Du        
    284 ****       251.5000 322.0000 -59.5000 Du        
    285 ****       251.5000 322.2500 -60.5000 Du        
    286 ****       251.5000 322.2500 -60.2500 Du        
    287 ****       251.5000 322.2500 -60.0000 Du        
    288 ****       251.5000 322.2500 -59.7500 Du        
    289 ****       251.5000 322.2500 -59.5000 Du        
    290 ****       251.5000 323.0000 -63.5000 Du        
    291 ****       251.5000 323.0000 -63.2500 Du        
    292 ****       251.5000 323.2500 -63.2500 Du        
    293 ****       251.7500 314.0000 -70.2500 Du        
    294 ****       251.7500 314.2500 -70.2500 Du        
    295 ****       251.7500 314.5000 -70.2500 Du        
    296 ****       251.7500 314.7500 -70.2500 Du        
    297 ****       251.7500 314.7500 -70.0000 Du        
    298 ****       251.7500 315.0000 -70.2500 Du        
    299 ****       251.7500 315.0000 -70.0000 Du        
    300 ****       251.7500 315.2500 -70.2500 Du        
    301 ****       251.7500 315.2500 -70.0000 Du        
    302 ****       251.7500 315.2500 -69.7500 Du        
    303 ****       251.7500 315.5000 -70.2500 Du        
    304 ****       251.7500 315.5000 -70.0000 Du        
    305 ****       251.7500 315.5000 -69.7500 Du        
    306 ****       251.7500 315.7500 -70.2500 Du        
    307 ****       251.7500 315.7500 -70.0000 Du        
    308 ****       251.7500 315.7500 -69.7500 Du        
    309 ****       251.7500 315.7500 -69.5000 Du        
    310 ****       251.7500 316.0000 -70.2500 Du        
    311 ****       251.7500 316.0000 -70.0000 Du        
    312 ****       251.7500 316.0000 -69.7500 Du        
    313 ****       251.7500 316.0000 -69.5000 Du        
    314 ****       251.7500 316.2500 -70.2500 Du        
    315 ****       251.7500 316.2500 -70.0000 Du        
    316 ****       251.7500 316.2500 -69.7500 Du        
    317 ****       251.7500 316.2500 -69.5000 Du        
    318 ****       251.7500 316.2500 -69.2500 Du        
    319 ****       251.7500 316.5000 -70.2500 Du        
    320 ****       251.7500 316.5000 -70.0000 Du        
    321 ****       251.7500 316.5000 -69.7500 Du        
    322 ****       251.7500 316.5000 -69.5000 Du        
    323 ****       251.7500 316.7500 -70.2500 Du        
    324 ****       251.7500 316.7500 -70.0000 Du        
    325 ****       251.7500 316.7500 -69.7500 Du        
    326 ****       251.7500 316.7500 -69.5000 Du        
    327 ****       251.7500 316.7500 -69.2500 Du        
    328 ****       251.7500 317.0000 -70.2500 Du        
    329 ****       251.7500 317.0000 -70.0000 Du        
    330 ****       251.7500 317.0000 -69.7500 Du        
    331 ****       251.7500 317.0000 -69.5000 Du        
    332 ****       251.7500 317.0000 -69.2500 Du        
    333 ****       251.7500 317.0000 -69.0000 Du        
    334 ****       251.7500 317.2500 -70.2500 Du        
    335 ****       251.7500 317.2500 -70.0000 Du        
    336 ****       251.7500 317.2500 -69.7500 Du        
    337 ****       251.7500 317.2500 -69.5000 Du        
    338 ****       251.7500 317.2500 -69.2500 Du        
    339 ****       251.7500 317.2500 -69.0000 Du        
    340 ****       251.7500 317.5000 -70.2500 Du        
    341 ****       251.7500 317.5000 -70.0000 Du        
    342 ****       251.7500 317.5000 -69.7500 Du        
    343 ****       251.7500 317.7500 -70.2500 Du        
    344 ****       251.7500 317.7500 -70.0000 Du        
    345 ****       251.7500 317.7500 -69.7500 Du        
    346 ****       251.7500 318.0000 -70.2500 Du        
    347 ****       251.7500 320.2500 -66.7500 Du        
    348 ****       251.7500 320.5000 -67.0000 Du        
    349 ****       251.7500 320.5000 -66.7500 Du        
    350 ****       251.7500 320.5000 -66.5000 Du        
    351 ****       251.7500 320.5000 -66.2500 Du        
    352 ****       251.7500 320.7500 -67.0000 Du        
    353 ****       251.7500 320.7500 -66.7500 Du        
    354 ****       251.7500 320.7500 -66.5000 Du        
    355 ****       251.7500 320.7500 -66.2500 Du        
    356 ****       251.7500 320.7500 -66.0000 Du        
    357 ****       251.7500 320.7500 -60.5000 Du        
    358 ****       251.7500 320.7500 -60.2500 Du        
    359 ****       251.7500 321.0000 -67.0000 Du        
    360 ****       251.7500 321.0000 -66.7500 Du        
    361 ****       251.7500 321.0000 -66.5000 Du        
    362 ****       251.7500 321.0000 -66.2500 Du        
    363 ****       251.7500 321.0000 -66.0000 Du        
    364 ****       251.7500 321.0000 -60.5000 Du        
    365 ****       251.7500 321.0000 -60.2500 Du        
    366 ****       251.7500 321.0000 -60.0000 Du        
    367 ****       251.7500 321.2500 -67.0000 Du        
    368 ****       251.7500 321.2500 -66.7500 Du        
    369 ****       251.7500 321.2500 -66.5000 Du        
    370 ****       251.7500 321.2500 -66.2500 Du        
    371 ****       251.7500 321.2500 -66.0000 Du        
    372 ****       251.7500 321.2500 -65.7500 Du        
    373 ****       251.7500 321.2500 -60.5000 Du        
    374 ****       251.7500 321.2500 -60.2500 Du        
    375 ****       251.7500 321.2500 -60.0000 Du        
    376 ****       251.7500 321.2500 -59.7500 Du        
    377 ****       251.7500 321.5000 -66.7500 Du        
    378 ****       251.7500 321.5000 -66.5000 Du        
    379 ****       251.7500 321.5000 -66.2500 Du        
    380 ****       251.7500 321.5000 -66.0000 Du        
    381 ****       251.7500 321.5000 -65.7500 Du        
    382 ****       251.7500 321.5000 -60.7500 Du        
    383 ****       251.7500 321.5000 -60.5000 Du        
    384 ****       251.7500 321.5000 -60.2500 Du        
    385 ****       251.7500 321.5000 -60.0000 Du        
    386 ****       251.7500 321.5000 -59.7500 Du        
    387 ****       251.7500 321.7500 -60.7500 Du        
    388 ****       251.7500 321.7500 -60.5000 Du        
    389 ****       251.7500 321.7500 -60.2500 Du        
    390 ****       251.7500 321.7500 -60.0000 Du        
    391 ****       251.7500 321.7500 -59.7500 Du        
    392 ****       251.7500 321.7500 -59.5000 Du        
    393 ****       251.7500 322.0000 -60.7500 Du        
    394 ****       251.7500 322.0000 -60.5000 Du        
    395 ****       251.7500 322.0000 -60.2500 Du        
    396 ****       251.7500 322.0000 -60.0000 Du        
    397 ****       251.7500 322.0000 -59.7500 Du        
    398 ****       251.7500 322.0000 -59.5000 Du        
    399 ****       251.7500 322.2500 -60.5000 Du        
    400 ****       251.7500 322.2500 -60.2500 Du        
    401 ****       251.7500 322.2500 -60.0000 Du        
    402 ****       251.7500 322.2500 -59.7500 Du        
    403 ****       251.7500 322.2500 -59.5000 Du        
    404 ****       251.7500 323.0000 -63.2500 Du        
    405 ****       252.0000 313.7500 -70.7500 Du        
    406 ****       252.0000 313.7500 -70.5000 Du        
    407 ****       252.0000 314.0000 -70.7500 Du        
    408 ****       252.0000 314.0000 -70.5000 Du        
    409 ****       252.0000 314.0000 -70.2500 Du        
    410 ****       252.0000 314.2500 -70.7500 Du        
    411 ****       252.0000 314.2500 -70.5000 Du        
    412 ****       252.0000 314.2500 -70.2500 Du        
    413 ****       252.0000 314.5000 -70.7500 Du        
    414 ****       252.0000 314.5000 -70.5000 Du        
    415 ****       252.0000 314.5000 -70.2500 Du        
    416 ****       252.0000 314.5000 -70.0000 Du        
    417 ****       252.0000 314.7500 -70.7500 Du        
    418 ****       252.0000 314.7500 -70.5000 Du        
    419 ****       252.0000 314.7500 -70.2500 Du        
    420 ****       252.0000 314.7500 -70.0000 Du        
    421 ****       252.0000 315.0000 -70.7500 Du        
    422 ****       252.0000 315.0000 -70.5000 Du        
    423 ****       252.0000 315.0000 -70.2500 Du        
    424 ****       252.0000 315.0000 -70.0000 Du        
    425 ****       252.0000 315.0000 -69.7500 Du        
    426 ****       252.0000 315.2500 -70.7500 Du        
    427 ****       252.0000 315.2500 -70.5000 Du        
    428 ****       252.0000 315.2500 -70.2500 Du        
    429 ****       252.0000 315.2500 -70.0000 Du        
    430 ****       252.0000 315.2500 -69.7500 Du        
    431 ****       252.0000 315.5000 -70.7500 Du        
    432 ****       252.0000 315.5000 -70.5000 Du        
    433 ****       252.0000 315.5000 -70.2500 Du        
    434 ****       252.0000 315.5000 -70.0000 Du        
    435 ****       252.0000 315.5000 -69.7500 Du        
    436 ****       252.0000 315.7500 -70.7500 Du        
    437 ****       252.0000 315.7500 -70.5000 Du        
    438 ****       252.0000 315.7500 -70.2500 Du        
    439 ****       252.0000 315.7500 -70.0000 Du        
    440 ****       252.0000 315.7500 -69.7500 Du        
    441 ****       252.0000 315.7500 -69.5000 Du        
    442 ****       252.0000 316.0000 -70.7500 Du        
    443 ****       252.0000 316.0000 -70.5000 Du        
    444 ****       252.0000 316.0000 -70.2500 Du        
    445 ****       252.0000 316.0000 -70.0000 Du        
    446 ****       252.0000 316.0000 -69.7500 Du        
    447 ****       252.0000 316.0000 -69.5000 Du        
    448 ****       252.0000 316.2500 -70.7500 Du        
    449 ****       252.0000 316.2500 -70.5000 Du        
    450 ****       252.0000 316.2500 -70.2500 Du        
    451 ****       252.0000 316.2500 -70.0000 Du        
    452 ****       252.0000 316.2500 -69.7500 Du        
    453 ****       252.0000 316.2500 -69.5000 Du        
    454 ****       252.0000 316.5000 -70.7500 Du        
    455 ****       252.0000 316.5000 -70.5000 Du        
    456 ****       252.0000 316.5000 -70.2500 Du        
    457 ****       252.0000 316.5000 -70.0000 Du        
    458 ****       252.0000 316.5000 -69.7500 Du        
    459 ****       252.0000 316.5000 -69.5000 Du        
    460 ****       252.0000 316.7500 -70.7500 Du        
    461 ****       252.0000 316.7500 -70.5000 Du        
    462 ****       252.0000 316.7500 -70.2500 Du        
    463 ****       252.0000 316.7500 -70.0000 Du        
    464 ****       252.0000 316.7500 -69.7500 Du        
    465 ****       252.0000 316.7500 -69.5000 Du        
    466 ****       252.0000 316.7500 -69.2500 Du        
    467 ****       252.0000 316.7500 -69.0000 Du        
    468 ****       252.0000 317.0000 -70.7500 Du        
    469 ****       252.0000 317.0000 -70.5000 Du        
    470 ****       252.0000 317.0000 -70.2500 Du        
    471 ****       252.0000 317.0000 -70.0000 Du        
    472 ****       252.0000 317.0000 -69.7500 Du        
    473 ****       252.0000 317.0000 -69.5000 Du        
    474 ****       252.0000 317.0000 -69.2500 Du        
    475 ****       252.0000 317.0000 -69.0000 Du        
    476 ****       252.0000 317.2500 -70.7500 Du        
    477 ****       252.0000 317.2500 -70.5000 Du        
    478 ****       252.0000 317.2500 -70.2500 Du        
    479 ****       252.0000 317.2500 -70.0000 Du        
    480 ****       252.0000 317.2500 -69.7500 Du        
    481 ****       252.0000 317.2500 -69.5000 Du        
    482 ****       252.0000 317.2500 -69.2500 Du        
    483 ****       252.0000 317.5000 -70.7500 Du        
    484 ****       252.0000 317.5000 -70.5000 Du        
    485 ****       252.0000 317.5000 -70.2500 Du        
    486 ****       252.0000 317.5000 -70.0000 Du        
    487 ****       252.0000 317.7500 -70.7500 Du        
    488 ****       252.0000 317.7500 -70.5000 Du        
    489 ****       252.0000 320.0000 -66.7500 Du        
    490 ****       252.0000 320.2500 -67.0000 Du        
    491 ****       252.0000 320.2500 -66.7500 Du        
    492 ****       252.0000 320.5000 -67.0000 Du        
    493 ****       252.0000 320.5000 -66.7500 Du        
    494 ****       252.0000 320.5000 -66.5000 Du        
    495 ****       252.0000 320.5000 -66.2500 Du        
    496 ****       252.0000 320.5000 -60.2500 Du        
    497 ****       252.0000 320.7500 -67.0000 Du        
    498 ****       252.0000 320.7500 -66.7500 Du        
    499 ****       252.0000 320.7500 -66.5000 Du        
    500 ****       252.0000 320.7500 -66.2500 Du        
    501 ****       252.0000 320.7500 -66.0000 Du        
    502 ****       252.0000 320.7500 -60.5000 Du        
    503 ****       252.0000 320.7500 -60.2500 Du        
    504 ****       252.0000 320.7500 -60.0000 Du        
    505 ****       252.0000 320.7500 -59.7500 Du        
    506 ****       252.0000 321.0000 -67.0000 Du        
    507 ****       252.0000 321.0000 -66.7500 Du        
    508 ****       252.0000 321.0000 -66.5000 Du        
    509 ****       252.0000 321.0000 -66.2500 Du        
    510 ****       252.0000 321.0000 -66.0000 Du        
    511 ****       252.0000 321.0000 -65.7500 Du        
    512 ****       252.0000 321.0000 -60.5000 Du        
    513 ****       252.0000 321.0000 -60.2500 Du        
    514 ****       252.0000 321.0000 -60.0000 Du        
    515 ****       252.0000 321.0000 -59.7500 Du        
    516 ****       252.0000 321.2500 -66.7500 Du        
    517 ****       252.0000 321.2500 -66.5000 Du        
    518 ****       252.0000 321.2500 -66.2500 Du        
    519 ****       252.0000 321.2500 -66.0000 Du        
    520 ****       252.0000 321.2500 -65.7500 Du        
    521 ****       252.0000 321.2500 -60.5000 Du        
    522 ****       252.0000 321.2500 -60.2500 Du        
    523 ****       252.0000 321.2500 -60.0000 Du        
    524 ****       252.0000 321.2500 -59.7500 Du        
    525 ****       252.0000 321.2500 -59.5000 Du        
    526 ****       252.0000 321.5000 -66.5000 Du        
    527 ****       252.0000 321.5000 -66.2500 Du        
    528 ****       252.0000 321.5000 -66.0000 Du        
    529 ****       252.0000 321.5000 -65.7500 Du        
    530 ****       252.0000 321.5000 -60.7500 Du        
    531 ****       252.0000 321.5000 -60.5000 Du        
    532 ****       252.0000 321.5000 -60.2500 Du        
    533 ****       252.0000 321.5000 -60.0000 Du        
    534 ****       252.0000 321.5000 -59.7500 Du        
    535 ****       252.0000 321.5000 -59.5000 Du        
    536 ****       252.0000 321.5000 -59.2500 Du        
    537 ****       252.0000 321.7500 -61.2500 Du        
    538 ****       252.0000 321.7500 -61.0000 Du        
    539 ****       252.0000 321.7500 -60.7500 Du        
    540 ****       252.0000 321.7500 -60.5000 Du        
    541 ****       252.0000 321.7500 -60.2500 Du        
    542 ****       252.0000 321.7500 -60.0000 Du        
    543 ****       252.0000 321.7500 -59.7500 Du        
    544 ****       252.0000 321.7500 -59.5000 Du        
    545 ****       252.0000 321.7500 -59.2500 Du        
    546 ****       252.0000 322.0000 -61.2500 Du        
    547 ****       252.0000 322.0000 -61.0000 Du        
    548 ****       252.0000 322.0000 -60.7500 Du        
    549 ****       252.0000 322.0000 -60.5000 Du        
    550 ****       252.0000 322.0000 -60.2500 Du        
    551 ****       252.0000 322.0000 -60.0000 Du        
    552 ****       252.0000 322.0000 -59.7500 Du        
    553 ****       252.0000 322.0000 -59.5000 Du        
    554 ****       252.0000 322.2500 -60.5000 Du        
    555 ****       252.0000 322.2500 -60.2500 Du        
    556 ****       252.0000 322.2500 -60.0000 Du        
    557 ****       252.0000 322.2500 -59.7500 Du        
    558 ****       252.0000 322.2500 -59.5000 Du        
    559 ****       252.2500 313.7500 -70.7500 Du        
    560 ****       252.2500 313.7500 -70.5000 Du        
    561 ****       252.2500 314.0000 -70.7500 Du        
    562 ****       252.2500 314.0000 -70.5000 Du        
    563 ****       252.2500 314.0000 -70.2500 Du        
    564 ****       252.2500 314.2500 -70.7500 Du        
    565 ****       252.2500 314.2500 -70.5000 Du        
    566 ****       252.2500 314.2500 -70.2500 Du        
    567 ****       252.2500 314.5000 -70.7500 Du        
    568 ****       252.2500 314.5000 -70.5000 Du        
    569 ****       252.2500 314.5000 -70.2500 Du        
    570 ****       252.2500 314.5000 -70.0000 Du        
    571 ****       252.2500 314.7500 -70.7500 Du        
    572 ****       252.2500 314.7500 -70.5000 Du        
    573 ****       252.2500 314.7500 -70.2500 Du        
    574 ****       252.2500 314.7500 -70.0000 Du        
    575 ****       252.2500 315.0000 -70.7500 Du        
    576 ****       252.2500 315.0000 -70.5000 Du        
    577 ****       252.2500 315.0000 -70.2500 Du        
    578 ****       252.2500 315.0000 -70.0000 Du        
    579 ****       252.2500 315.0000 -69.7500 Du        
    580 ****       252.2500 315.2500 -70.7500 Du        
    581 ****       252.2500 315.2500 -70.5000 Du        
    582 ****       252.2500 315.2500 -70.2500 Du        
    583 ****       252.2500 315.2500 -70.0000 Du        
    584 ****       252.2500 315.2500 -69.7500 Du        
    585 ****       252.2500 315.5000 -70.7500 Du        
    586 ****       252.2500 315.5000 -70.5000 Du        
    587 ****       252.2500 315.5000 -70.2500 Du        
    588 ****       252.2500 315.5000 -70.0000 Du        
    589 ****       252.2500 315.5000 -69.7500 Du        
    590 ****       252.2500 315.7500 -70.7500 Du        
    591 ****       252.2500 315.7500 -70.5000 Du        
    592 ****       252.2500 315.7500 -70.2500 Du        
    593 ****       252.2500 315.7500 -70.0000 Du        
    594 ****       252.2500 315.7500 -69.7500 Du        
    595 ****       252.2500 316.0000 -70.7500 Du        
    596 ****       252.2500 316.0000 -70.5000 Du        
    597 ****       252.2500 316.0000 -70.2500 Du        
    598 ****       252.2500 316.0000 -70.0000 Du        
    599 ****       252.2500 316.0000 -69.7500 Du        
    600 ****       252.2500 316.2500 -70.7500 Du        
    601 ****       252.2500 316.2500 -70.5000 Du        
    602 ****       252.2500 316.2500 -70.2500 Du        
    603 ****       252.2500 316.2500 -70.0000 Du        
    604 ****       252.2500 316.2500 -69.7500 Du        
    605 ****       252.2500 316.5000 -70.7500 Du        
    606 ****       252.2500 316.7500 -70.7500 Du        
    607 ****       252.2500 317.0000 -70.7500 Du        
    608 ****       252.2500 317.2500 -70.7500 Du        
    609 ****       252.2500 320.0000 -66.7500 Du        
    610 ****       252.2500 320.2500 -67.0000 Du        
    611 ****       252.2500 320.2500 -66.7500 Du        
    612 ****       252.2500 320.2500 -60.0000 Du        
    613 ****       252.2500 320.5000 -67.0000 Du        
    614 ****       252.2500 320.5000 -66.7500 Du        
    615 ****       252.2500 320.5000 -66.5000 Du        
    616 ****       252.2500 320.5000 -66.2500 Du        
    617 ****       252.2500 320.5000 -60.2500 Du        
    618 ****       252.2500 320.5000 -60.0000 Du        
    619 ****       252.2500 320.5000 -59.7500 Du        
    620 ****       252.2500 320.7500 -67.0000 Du        
    621 ****       252.2500 320.7500 -66.7500 Du        
    622 ****       252.2500 320.7500 -66.5000 Du        
    623 ****       252.2500 320.7500 -66.2500 Du        
    624 ****       252.2500 320.7500 -66.0000 Du        
    625 ****       252.2500 320.7500 -60.5000 Du        
    626 ****       252.2500 320.7500 -60.2500 Du        
    627 ****       252.2500 320.7500 -60.0000 Du        
    628 ****       252.2500 320.7500 -59.7500 Du        
    629 ****       252.2500 320.7500 -59.5000 Du        
    630 ****       252.2500 321.0000 -66.7500 Du        
    631 ****       252.2500 321.0000 -66.5000 Du        
    632 ****       252.2500 321.0000 -66.2500 Du        
    633 ****       252.2500 321.0000 -66.0000 Du        
    634 ****       252.2500 321.0000 -65.7500 Du        
    635 ****       252.2500 321.0000 -60.5000 Du        
    636 ****       252.2500 321.0000 -60.2500 Du        
    637 ****       252.2500 321.0000 -60.0000 Du        
    638 ****       252.2500 321.0000 -59.7500 Du        
    639 ****       252.2500 321.0000 -59.5000 Du        
    640 ****       252.2500 321.2500 -66.7500 Du        
    641 ****       252.2500 321.2500 -66.5000 Du        
    642 ****       252.2500 321.2500 -66.2500 Du        
    643 ****       252.2500 321.2500 -66.0000 Du        
    644 ****       252.2500 321.2500 -65.7500 Du        
    645 ****       252.2500 321.2500 -60.5000 Du        
    646 ****       252.2500 321.2500 -60.2500 Du        
    647 ****       252.2500 321.2500 -60.0000 Du        
    648 ****       252.2500 321.2500 -59.7500 Du        
    649 ****       252.2500 321.2500 -59.5000 Du        
    650 ****       252.2500 321.2500 -59.2500 Du        
    651 ****       252.2500 321.5000 -66.5000 Du        
    652 ****       252.2500 321.5000 -66.2500 Du        
    653 ****       252.2500 321.5000 -66.0000 Du        
    654 ****       252.2500 321.5000 -65.7500 Du        
    655 ****       252.2500 321.5000 -61.0000 Du        
    656 ****       252.2500 321.5000 -60.7500 Du        
    657 ****       252.2500 321.5000 -60.5000 Du        
    658 ****       252.2500 321.5000 -60.2500 Du        
    659 ****       252.2500 321.5000 -60.0000 Du        
    660 ****       252.2500 321.5000 -59.7500 Du        
    661 ****       252.2500 321.5000 -59.5000 Du        
    662 ****       252.2500 321.5000 -59.2500 Du        
    663 ****       252.2500 321.7500 -61.2500 Du        
    664 ****       252.2500 321.7500 -61.0000 Du        
    665 ****       252.2500 321.7500 -60.7500 Du        
    666 ****       252.2500 321.7500 -60.5000 Du        
    667 ****       252.2500 321.7500 -60.2500 Du        
    668 ****       252.2500 321.7500 -60.0000 Du        
    669 ****       252.2500 321.7500 -59.7500 Du        
    670 ****       252.2500 321.7500 -59.5000 Du        
    671 ****       252.2500 321.7500 -59.2500 Du        
    672 ****       252.2500 322.0000 -61.2500 Du        
    673 ****       252.2500 322.0000 -61.0000 Du        
    674 ****       252.2500 322.0000 -60.7500 Du        
    675 ****       252.2500 322.0000 -60.5000 Du        
    676 ****       252.2500 322.0000 -60.2500 Du        
    677 ****       252.2500 322.0000 -60.0000 Du        
    678 ****       252.2500 322.0000 -59.7500 Du        
    679 ****       252.2500 322.0000 -59.5000 Du        
    680 ****       252.2500 322.2500 -60.0000 Du        
    681 ****       252.2500 322.2500 -59.7500 Du        
    682 ****       252.5000 313.7500 -70.7500 Du        
    683 ****       252.5000 314.0000 -70.7500 Du        
    684 ****       252.5000 314.0000 -70.5000 Du        
    685 ****       252.5000 314.2500 -70.7500 Du        
    686 ****       252.5000 314.2500 -70.5000 Du        
    687 ****       252.5000 314.2500 -70.2500 Du        
    688 ****       252.5000 314.5000 -70.7500 Du        
    689 ****       252.5000 314.5000 -70.5000 Du        
    690 ****       252.5000 314.5000 -70.2500 Du        
    691 ****       252.5000 314.5000 -70.0000 Du        
    692 ****       252.5000 314.7500 -70.7500 Du        
    693 ****       252.5000 314.7500 -70.5000 Du        
    694 ****       252.5000 314.7500 -70.2500 Du        
    695 ****       252.5000 314.7500 -70.0000 Du        
    696 ****       252.5000 315.0000 -70.7500 Du        
    697 ****       252.5000 315.0000 -70.5000 Du        
    698 ****       252.5000 315.0000 -70.2500 Du        
    699 ****       252.5000 315.0000 -70.0000 Du        
    700 ****       252.5000 315.0000 -69.7500 Du        
    701 ****       252.5000 315.2500 -70.7500 Du        
    702 ****       252.5000 315.2500 -70.5000 Du        
    703 ****       252.5000 315.2500 -70.2500 Du        
    704 ****       252.5000 315.2500 -70.0000 Du        
    705 ****       252.5000 315.2500 -69.7500 Du        
    706 ****       252.5000 315.5000 -70.7500 Du        
    707 ****       252.5000 315.5000 -70.5000 Du        
    708 ****       252.5000 315.5000 -70.2500 Du        
    709 ****       252.5000 315.5000 -70.0000 Du        
    710 ****       252.5000 315.7500 -70.7500 Du        
    711 ****       252.5000 315.7500 -70.5000 Du        
    712 ****       252.5000 315.7500 -70.2500 Du        
    713 ****       252.5000 315.7500 -70.0000 Du        
    714 ****       252.5000 316.2500 -63.5000 Du        
    715 ****       252.5000 316.2500 -63.2500 Du        
    716 ****       252.5000 320.0000 -66.7500 Du        
    717 ****       252.5000 320.2500 -66.7500 Du        
    718 ****       252.5000 320.2500 -60.0000 Du        
    719 ****       252.5000 320.2500 -59.5000 Du        
    720 ****       252.5000 320.5000 -66.7500 Du        
    721 ****       252.5000 320.5000 -66.5000 Du        
    722 ****       252.5000 320.5000 -66.2500 Du        
    723 ****       252.5000 320.5000 -66.0000 Du        
    724 ****       252.5000 320.5000 -60.0000 Du        
    725 ****       252.5000 320.5000 -59.7500 Du        
    726 ****       252.5000 320.5000 -59.5000 Du        
    727 ****       252.5000 320.7500 -67.0000 Du        
    728 ****       252.5000 320.7500 -66.7500 Du        
    729 ****       252.5000 320.7500 -66.5000 Du        
    730 ****       252.5000 320.7500 -66.2500 Du        
    731 ****       252.5000 320.7500 -66.0000 Du        
    732 ****       252.5000 320.7500 -65.7500 Du        
    733 ****       252.5000 320.7500 -60.2500 Du        
    734 ****       252.5000 320.7500 -60.0000 Du        
    735 ****       252.5000 320.7500 -59.7500 Du        
    736 ****       252.5000 320.7500 -59.5000 Du        
    737 ****       252.5000 320.7500 -59.2500 Du        
    738 ****       252.5000 321.0000 -66.7500 Du        
    739 ****       252.5000 321.0000 -66.5000 Du        
    740 ****       252.5000 321.0000 -66.2500 Du        
    741 ****       252.5000 321.0000 -66.0000 Du        
    742 ****       252.5000 321.0000 -65.7500 Du        
    743 ****       252.5000 321.0000 -60.5000 Du        
    744 ****       252.5000 321.0000 -60.2500 Du        
    745 ****       252.5000 321.0000 -60.0000 Du        
    746 ****       252.5000 321.0000 -59.7500 Du        
    747 ****       252.5000 321.0000 -59.5000 Du        
    748 ****       252.5000 321.0000 -59.2500 Du        
    749 ****       252.5000 321.0000 -59.0000 Du        
    750 ****       252.5000 321.2500 -66.7500 Du        
    751 ****       252.5000 321.2500 -66.5000 Du        
    752 ****       252.5000 321.2500 -66.2500 Du        
    753 ****       252.5000 321.2500 -66.0000 Du        
    754 ****       252.5000 321.2500 -65.7500 Du        
    755 ****       252.5000 321.2500 -60.5000 Du        
    756 ****       252.5000 321.2500 -60.2500 Du        
    757 ****       252.5000 321.2500 -60.0000 Du        
    758 ****       252.5000 321.2500 -59.7500 Du        
    759 ****       252.5000 321.2500 -59.5000 Du        
    760 ****       252.5000 321.2500 -59.2500 Du        
    761 ****       252.5000 321.2500 -59.0000 Du        
    762 ****       252.5000 321.5000 -66.5000 Du        
    763 ****       252.5000 321.5000 -66.2500 Du        
    764 ****       252.5000 321.5000 -66.0000 Du        
    765 ****       252.5000 321.5000 -65.7500 Du        
    766 ****       252.5000 321.5000 -65.5000 Du        
    767 ****       252.5000 321.5000 -65.2500 Du        
    768 ****       252.5000 321.5000 -65.0000 Du        
    769 ****       252.5000 321.5000 -60.7500 Du        
    770 ****       252.5000 321.5000 -60.5000 Du        
    771 ****       252.5000 321.5000 -60.2500 Du        
    772 ****       252.5000 321.5000 -60.0000 Du        
    773 ****       252.5000 321.5000 -59.7500 Du        
    774 ****       252.5000 321.5000 -59.5000 Du        
    775 ****       252.5000 321.5000 -59.2500 Du        
    776 ****       252.5000 321.5000 -59.0000 Du        
    777 ****       252.5000 321.7500 -65.2500 Du        
    778 ****       252.5000 321.7500 -65.0000 Du        
    779 ****       252.5000 321.7500 -64.7500 Du        
    780 ****       252.5000 321.7500 -60.7500 Du        
    781 ****       252.5000 321.7500 -60.5000 Du        
    782 ****       252.5000 321.7500 -60.2500 Du        
    783 ****       252.5000 321.7500 -60.0000 Du        
    784 ****       252.5000 321.7500 -59.7500 Du        
    785 ****       252.5000 321.7500 -59.5000 Du        
    786 ****       252.5000 321.7500 -59.2500 Du        
    787 ****       252.5000 322.0000 -61.0000 Du        
    788 ****       252.5000 322.0000 -60.7500 Du        
    789 ****       252.5000 322.0000 -60.5000 Du        
    790 ****       252.5000 322.0000 -60.2500 Du        
    791 ****       252.5000 322.0000 -60.0000 Du        
    792 ****       252.5000 322.0000 -59.7500 Du        
    793 ****       252.5000 322.0000 -59.5000 Du        
    794 ****       252.7500 314.0000 -70.7500 Du        
    795 ****       252.7500 314.0000 -70.5000 Du        
    796 ****       252.7500 314.2500 -70.7500 Du        
    797 ****       252.7500 314.2500 -70.5000 Du        
    798 ****       252.7500 314.2500 -70.2500 Du        
    799 ****       252.7500 314.5000 -70.7500 Du        
    800 ****       252.7500 314.5000 -70.5000 Du        
    801 ****       252.7500 314.5000 -70.2500 Du        
    802 ****       252.7500 314.5000 -70.0000 Du        
    803 ****       252.7500 314.7500 -70.7500 Du        
    804 ****       252.7500 314.7500 -70.5000 Du        
    805 ****       252.7500 314.7500 -70.2500 Du        
    806 ****       252.7500 314.7500 -70.0000 Du        
    807 ****       252.7500 315.0000 -70.7500 Du        
    808 ****       252.7500 315.0000 -70.5000 Du        
    809 ****       252.7500 315.0000 -70.2500 Du        
    810 ****       252.7500 315.0000 -70.0000 Du        
    811 ****       252.7500 315.2500 -70.5000 Du        
    812 ****       252.7500 315.2500 -70.2500 Du        
    813 ****       252.7500 315.2500 -70.0000 Du        
    814 ****       252.7500 316.0000 -63.5000 Du        
    815 ****       252.7500 316.0000 -63.2500 Du        
    816 ****       252.7500 316.0000 -63.0000 Du        
    817 ****       252.7500 316.2500 -63.5000 Du        
    818 ****       252.7500 316.2500 -63.2500 Du        
    819 ****       252.7500 316.2500 -63.0000 Du        
    820 ****       252.7500 319.7500 -59.5000 Du        
    821 ****       252.7500 320.0000 -66.7500 Du        
    822 ****       252.7500 320.0000 -59.7500 Du        
    823 ****       252.7500 320.0000 -59.5000 Du        
    824 ****       252.7500 320.0000 -59.2500 Du        
    825 ****       252.7500 320.2500 -66.7500 Du        
    826 ****       252.7500 320.2500 -66.5000 Du        
    827 ****       252.7500 320.2500 -66.2500 Du        
    828 ****       252.7500 320.2500 -60.2500 Du        
    829 ****       252.7500 320.2500 -60.0000 Du        
    830 ****       252.7500 320.2500 -59.7500 Du        
    831 ****       252.7500 320.2500 -59.5000 Du        
    832 ****       252.7500 320.2500 -59.2500 Du        
    833 ****       252.7500 320.2500 -59.0000 Du        
    834 ****       252.7500 320.5000 -66.7500 Du        
    835 ****       252.7500 320.5000 -66.5000 Du        
    836 ****       252.7500 320.5000 -66.2500 Du        
    837 ****       252.7500 320.5000 -66.0000 Du        
    838 ****       252.7500 320.5000 -65.7500 Du        
    839 ****       252.7500 320.5000 -60.2500 Du        
    840 ****       252.7500 320.5000 -60.0000 Du        
    841 ****       252.7500 320.5000 -59.7500 Du        
    842 ****       252.7500 320.5000 -59.5000 Du        
    843 ****       252.7500 320.5000 -59.2500 Du        
    844 ****       252.7500 320.5000 -59.0000 Du        
    845 ****       252.7500 320.7500 -67.0000 Du        
    846 ****       252.7500 320.7500 -66.7500 Du        
    847 ****       252.7500 320.7500 -66.5000 Du        
    848 ****       252.7500 320.7500 -66.2500 Du        
    849 ****       252.7500 320.7500 -66.0000 Du        
    850 ****       252.7500 320.7500 -65.7500 Du        
    851 ****       252.7500 320.7500 -60.2500 Du        
    852 ****       252.7500 320.7500 -60.0000 Du        
    853 ****       252.7500 320.7500 -59.7500 Du        
    854 ****       252.7500 320.7500 -59.5000 Du        
    855 ****       252.7500 320.7500 -59.2500 Du        
    856 ****       252.7500 320.7500 -59.0000 Du        
    857 ****       252.7500 320.7500 -58.7500 Du        
    858 ****       252.7500 321.0000 -66.7500 Du        
    859 ****       252.7500 321.0000 -66.5000 Du        
    860 ****       252.7500 321.0000 -66.2500 Du        
    861 ****       252.7500 321.0000 -66.0000 Du        
    862 ****       252.7500 321.0000 -65.7500 Du        
    863 ****       252.7500 321.0000 -60.5000 Du        
    864 ****       252.7500 321.0000 -60.2500 Du        
    865 ****       252.7500 321.0000 -60.0000 Du        
    866 ****       252.7500 321.0000 -59.7500 Du        
    867 ****       252.7500 321.0000 -59.5000 Du        
    868 ****       252.7500 321.0000 -59.2500 Du        
    869 ****       252.7500 321.0000 -59.0000 Du        
    870 ****       252.7500 321.0000 -58.7500 Du        
    871 ****       252.7500 321.2500 -66.7500 Du        
    872 ****       252.7500 321.2500 -66.5000 Du        
    873 ****       252.7500 321.2500 -66.2500 Du        
    874 ****       252.7500 321.2500 -66.0000 Du        
    875 ****       252.7500 321.2500 -65.7500 Du        
    876 ****       252.7500 321.2500 -60.7500 Du        
    877 ****       252.7500 321.2500 -60.5000 Du        
    878 ****       252.7500 321.2500 -60.2500 Du        
    879 ****       252.7500 321.2500 -60.0000 Du        
    880 ****       252.7500 321.2500 -59.7500 Du        
    881 ****       252.7500 321.2500 -59.5000 Du        
    882 ****       252.7500 321.2500 -59.2500 Du        
    883 ****       252.7500 321.2500 -59.0000 Du        
    884 ****       252.7500 321.2500 -58.7500 Du        
    885 ****       252.7500 321.5000 -66.5000 Du        
    886 ****       252.7500 321.5000 -66.2500 Du        
    887 ****       252.7500 321.5000 -66.0000 Du        
    888 ****       252.7500 321.5000 -65.7500 Du        
    889 ****       252.7500 321.5000 -65.5000 Du        
    890 ****       252.7500 321.5000 -65.2500 Du        
    891 ****       252.7500 321.5000 -65.0000 Du        
    892 ****       252.7500 321.5000 -64.7500 Du        
    893 ****       252.7500 321.5000 -60.7500 Du        
    894 ****       252.7500 321.5000 -60.5000 Du        
    895 ****       252.7500 321.5000 -60.2500 Du        
    896 ****       252.7500 321.5000 -60.0000 Du        
    897 ****       252.7500 321.5000 -59.7500 Du        
    898 ****       252.7500 321.5000 -59.5000 Du        
    899 ****       252.7500 321.5000 -59.2500 Du        
    900 ****       252.7500 321.5000 -59.0000 Du        
    901 ****       252.7500 321.7500 -65.7500 Du        
    902 ****       252.7500 321.7500 -65.2500 Du        
    903 ****       252.7500 321.7500 -65.0000 Du        
    904 ****       252.7500 321.7500 -64.7500 Du        
    905 ****       252.7500 321.7500 -61.7500 Du        
    906 ****       252.7500 321.7500 -61.5000 Du        
    907 ****       252.7500 321.7500 -61.2500 Du        
    908 ****       252.7500 321.7500 -61.0000 Du        
    909 ****       252.7500 321.7500 -60.7500 Du        
    910 ****       252.7500 321.7500 -60.5000 Du        
    911 ****       252.7500 321.7500 -60.2500 Du        
    912 ****       252.7500 321.7500 -60.0000 Du        
    913 ****       252.7500 321.7500 -59.7500 Du        
    914 ****       252.7500 321.7500 -59.5000 Du        
    915 ****       252.7500 321.7500 -59.2500 Du        
    916 ****       252.7500 322.0000 -61.2500 Du        
    917 ****       252.7500 322.0000 -61.0000 Du        
    918 ****       252.7500 322.0000 -60.7500 Du        
    919 ****       252.7500 322.0000 -60.5000 Du        
    920 ****       252.7500 322.0000 -60.2500 Du        
    921 ****       252.7500 322.0000 -60.0000 Du        
    922 ****       252.7500 322.0000 -59.7500 Du        
    923 ****       252.7500 322.0000 -59.5000 Du        
    924 ****       253.0000 314.0000 -70.5000 Du        
    925 ****       253.0000 314.2500 -70.5000 Du        
    926 ****       253.0000 314.2500 -70.2500 Du        
    927 ****       253.0000 314.5000 -70.5000 Du        
    928 ****       253.0000 314.5000 -70.2500 Du        
    929 ****       253.0000 314.5000 -70.0000 Du        
    930 ****       253.0000 314.7500 -70.5000 Du        
    931 ****       253.0000 314.7500 -70.2500 Du        
    932 ****       253.0000 314.7500 -70.0000 Du        
    933 ****       253.0000 315.0000 -70.2500 Du        
    934 ****       253.0000 315.0000 -70.0000 Du        
    935 ****       253.0000 315.7500 -63.5000 Du        
    936 ****       253.0000 315.7500 -63.2500 Du        
    937 ****       253.0000 316.0000 -64.0000 Du        
    938 ****       253.0000 316.0000 -63.7500 Du        
    939 ****       253.0000 316.0000 -63.5000 Du        
    940 ****       253.0000 316.0000 -63.2500 Du        
    941 ****       253.0000 316.0000 -63.0000 Du        
    942 ****       253.0000 316.2500 -64.0000 Du        
    943 ****       253.0000 316.2500 -63.7500 Du        
    944 ****       253.0000 316.2500 -63.5000 Du        
    945 ****       253.0000 316.2500 -63.2500 Du        
    946 ****       253.0000 316.2500 -63.0000 Du        
    947 ****       253.0000 318.2500 -59.0000 Du        
    948 ****       253.0000 318.2500 -58.7500 Du        
    949 ****       253.0000 318.2500 -58.5000 Du        
    950 ****       253.0000 318.5000 -59.0000 Du        
    951 ****       253.0000 318.7500 -59.2500 Du        
    952 ****       253.0000 318.7500 -59.0000 Du        
    953 ****       253.0000 319.0000 -59.2500 Du        
    954 ****       253.0000 319.0000 -59.0000 Du        
    955 ****       253.0000 319.2500 -59.2500 Du        
    956 ****       253.0000 319.2500 -59.0000 Du        
    957 ****       253.0000 319.5000 -59.5000 Du        
    958 ****       253.0000 319.5000 -59.2500 Du        
    959 ****       253.0000 319.5000 -59.0000 Du        
    960 ****       253.0000 319.7500 -59.7500 Du        
    961 ****       253.0000 319.7500 -59.5000 Du        
    962 ****       253.0000 319.7500 -59.2500 Du        
    963 ****       253.0000 319.7500 -59.0000 Du        
    964 ****       253.0000 320.0000 -66.7500 Du        
    965 ****       253.0000 320.0000 -66.2500 Du        
    966 ****       253.0000 320.0000 -59.7500 Du        
    967 ****       253.0000 320.0000 -59.5000 Du        
    968 ****       253.0000 320.0000 -59.2500 Du        
    969 ****       253.0000 320.0000 -59.0000 Du        
    970 ****       253.0000 320.0000 -58.7500 Du        
    971 ****       253.0000 320.2500 -66.7500 Du        
    972 ****       253.0000 320.2500 -66.5000 Du        
    973 ****       253.0000 320.2500 -66.2500 Du        
    974 ****       253.0000 320.2500 -66.0000 Du        
    975 ****       253.0000 320.2500 -60.0000 Du        
    976 ****       253.0000 320.2500 -59.7500 Du        
    977 ****       253.0000 320.2500 -59.5000 Du        
    978 ****       253.0000 320.2500 -59.2500 Du        
    979 ****       253.0000 320.2500 -59.0000 Du        
    980 ****       253.0000 320.2500 -58.7500 Du        
    981 ****       253.0000 320.2500 -58.5000 Du        
    982 ****       253.0000 320.5000 -66.7500 Du        
    983 ****       253.0000 320.5000 -66.5000 Du        
    984 ****       253.0000 320.5000 -66.2500 Du        
    985 ****       253.0000 320.5000 -66.0000 Du        
    986 ****       253.0000 320.5000 -65.7500 Du        
    987 ****       253.0000 320.5000 -60.0000 Du        
    988 ****       253.0000 320.5000 -59.7500 Du        
    989 ****       253.0000 320.5000 -59.5000 Du        
    990 ****       253.0000 320.5000 -59.2500 Du        
    991 ****       253.0000 320.5000 -59.0000 Du        
    992 ****       253.0000 320.5000 -58.7500 Du        
    993 ****       253.0000 320.5000 -58.5000 Du        
    994 ****       253.0000 320.7500 -66.7500 Du        
    995 ****       253.0000 320.7500 -66.5000 Du        
    996 ****       253.0000 320.7500 -66.2500 Du        
    997 ****       253.0000 320.7500 -66.0000 Du        
    998 ****       253.0000 320.7500 -65.7500 Du        
    999 ****       253.0000 320.7500 -65.5000 Du        
   1000 ****       253.0000 320.7500 -60.2500 Du        
   1001 ****       253.0000 320.7500 -60.0000 Du        
   1002 ****       253.0000 320.7500 -59.7500 Du        
   1003 ****       253.0000 320.7500 -59.5000 Du        
   1004 ****       253.0000 320.7500 -59.2500 Du        
   1005 ****       253.0000 320.7500 -59.0000 Du        
   1006 ****       253.0000 320.7500 -58.7500 Du        
   1007 ****       253.0000 320.7500 -58.5000 Du        
   1008 ****       253.0000 320.7500 -58.2500 Du        
   1009 ****       253.0000 321.0000 -67.0000 Du        
   1010 ****       253.0000 321.0000 -66.7500 Du        
   1011 ****       253.0000 321.0000 -66.5000 Du        
   1012 ****       253.0000 321.0000 -66.2500 Du        
   1013 ****       253.0000 321.0000 -66.0000 Du        
   1014 ****       253.0000 321.0000 -65.7500 Du        
   1015 ****       253.0000 321.0000 -65.5000 Du        
   1016 ****       253.0000 321.0000 -65.2500 Du        
   1017 ****       253.0000 321.0000 -60.5000 Du        
   1018 ****       253.0000 321.0000 -60.2500 Du        
   1019 ****       253.0000 321.0000 -60.0000 Du        
   1020 ****       253.0000 321.0000 -59.7500 Du        
   1021 ****       253.0000 321.0000 -59.5000 Du        
   1022 ****       253.0000 321.0000 -59.2500 Du        
   1023 ****       253.0000 321.0000 -59.0000 Du        
   1024 ****       253.0000 321.0000 -58.7500 Du        
   1025 ****       253.0000 321.0000 -58.5000 Du        
   1026 ****       253.0000 321.2500 -66.7500 Du        
   1027 ****       253.0000 321.2500 -66.5000 Du        
   1028 ****       253.0000 321.2500 -66.2500 Du        
   1029 ****       253.0000 321.2500 -66.0000 Du        
   1030 ****       253.0000 321.2500 -65.7500 Du        
   1031 ****       253.0000 321.2500 -65.5000 Du        
   1032 ****       253.0000 321.2500 -65.2500 Du        
   1033 ****       253.0000 321.2500 -65.0000 Du        
   1034 ****       253.0000 321.2500 -61.0000 Du        
   1035 ****       253.0000 321.2500 -60.7500 Du        
   1036 ****       253.0000 321.2500 -60.5000 Du        
   1037 ****       253.0000 321.2500 -60.2500 Du        
   1038 ****       253.0000 321.2500 -60.0000 Du        
   1039 ****       253.0000 321.2500 -59.7500 Du        
   1040 ****       253.0000 321.2500 -59.5000 Du        
   1041 ****       253.0000 321.2500 -59.2500 Du        
   1042 ****       253.0000 321.2500 -59.0000 Du        
   1043 ****       253.0000 321.2500 -58.7500 Du        
   1044 ****       253.0000 321.5000 -66.5000 Du        
   1045 ****       253.0000 321.5000 -66.2500 Du        
   1046 ****       253.0000 321.5000 -66.0000 Du        
   1047 ****       253.0000 321.5000 -65.7500 Du        
   1048 ****       253.0000 321.5000 -65.5000 Du        
   1049 ****       253.0000 321.5000 -65.2500 Du        
   1050 ****       253.0000 321.5000 -65.0000 Du        
   1051 ****       253.0000 321.5000 -64.7500 Du        
   1052 ****       253.0000 321.5000 -61.7500 Du        
   1053 ****       253.0000 321.5000 -61.2500 Du        
   1054 ****       253.0000 321.5000 -61.0000 Du        
   1055 ****       253.0000 321.5000 -60.7500 Du        
   1056 ****       253.0000 321.5000 -60.5000 Du        
   1057 ****       253.0000 321.5000 -60.2500 Du        
   1058 ****       253.0000 321.5000 -60.0000 Du        
   1059 ****       253.0000 321.5000 -59.7500 Du        
   1060 ****       253.0000 321.5000 -59.5000 Du        
   1061 ****       253.0000 321.5000 -59.2500 Du        
   1062 ****       253.0000 321.5000 -59.0000 Du        
   1063 ****       253.0000 321.7500 -65.2500 Du        
   1064 ****       253.0000 321.7500 -65.0000 Du        
   1065 ****       253.0000 321.7500 -64.7500 Du        
   1066 ****       253.0000 321.7500 -61.7500 Du        
   1067 ****       253.0000 321.7500 -61.5000 Du        
   1068 ****       253.0000 321.7500 -61.2500 Du        
   1069 ****       253.0000 321.7500 -61.0000 Du        
   1070 ****       253.0000 321.7500 -60.7500 Du        
   1071 ****       253.0000 321.7500 -60.5000 Du        
   1072 ****       253.0000 321.7500 -60.2500 Du        
   1073 ****       253.0000 321.7500 -60.0000 Du        
   1074 ****       253.0000 321.7500 -59.7500 Du        
   1075 ****       253.0000 321.7500 -59.5000 Du        
   1076 ****       253.0000 321.7500 -59.2500 Du        
   1077 ****       253.0000 322.0000 -64.7500 Du        
   1078 ****       253.0000 322.0000 -64.2500 Du        
   1079 ****       253.0000 322.0000 -61.0000 Du        
   1080 ****       253.0000 322.0000 -60.7500 Du        
   1081 ****       253.0000 322.0000 -60.5000 Du        
   1082 ****       253.0000 322.0000 -60.2500 Du        
   1083 ****       253.0000 322.0000 -60.0000 Du        
   1084 ****       253.0000 322.0000 -59.7500 Du        
   1085 ****       253.0000 322.0000 -59.5000 Du        
   1086 ****       253.2500 314.2500 -70.5000 Du        
   1087 ****       253.2500 314.2500 -70.2500 Du        
   1088 ****       253.2500 314.5000 -70.5000 Du        
   1089 ****       253.2500 314.5000 -70.2500 Du        
   1090 ****       253.2500 314.7500 -70.2500 Du        
   1091 ****       253.2500 315.5000 -63.5000 Du        
   1092 ****       253.2500 315.5000 -63.2500 Du        
   1093 ****       253.2500 315.7500 -64.0000 Du        
   1094 ****       253.2500 315.7500 -63.7500 Du        
   1095 ****       253.2500 315.7500 -63.5000 Du        
   1096 ****       253.2500 315.7500 -63.2500 Du        
   1097 ****       253.2500 315.7500 -63.0000 Du        
   1098 ****       253.2500 316.0000 -64.0000 Du        
   1099 ****       253.2500 316.0000 -63.7500 Du        
   1100 ****       253.2500 316.0000 -63.5000 Du        
   1101 ****       253.2500 316.0000 -63.2500 Du        
   1102 ****       253.2500 316.0000 -63.0000 Du        
   1103 ****       253.2500 316.2500 -64.0000 Du        
   1104 ****       253.2500 316.2500 -63.7500 Du        
   1105 ****       253.2500 316.2500 -63.5000 Du        
   1106 ****       253.2500 316.2500 -63.2500 Du        
   1107 ****       253.2500 316.2500 -63.0000 Du        
   1108 ****       253.2500 318.2500 -59.0000 Du        
   1109 ****       253.2500 318.2500 -58.7500 Du        
   1110 ****       253.2500 318.2500 -58.5000 Du        
   1111 ****       253.2500 318.2500 -58.2500 Du        
   1112 ****       253.2500 318.5000 -59.0000 Du        
   1113 ****       253.2500 318.5000 -58.7500 Du        
   1114 ****       253.2500 318.5000 -58.5000 Du        
   1115 ****       253.2500 318.5000 -58.2500 Du        
   1116 ****       253.2500 318.7500 -59.2500 Du        
   1117 ****       253.2500 318.7500 -59.0000 Du        
   1118 ****       253.2500 318.7500 -58.7500 Du        
   1119 ****       253.2500 318.7500 -58.5000 Du        
   1120 ****       253.2500 318.7500 -58.2500 Du        
   1121 ****       253.2500 319.0000 -59.2500 Du        
   1122 ****       253.2500 319.0000 -59.0000 Du        
   1123 ****       253.2500 319.0000 -58.7500 Du        
   1124 ****       253.2500 319.0000 -58.5000 Du        
   1125 ****       253.2500 319.2500 -59.2500 Du        
   1126 ****       253.2500 319.2500 -59.0000 Du        
   1127 ****       253.2500 319.2500 -58.7500 Du        
   1128 ****       253.2500 319.2500 -58.5000 Du        
   1129 ****       253.2500 319.5000 -59.5000 Du        
   1130 ****       253.2500 319.5000 -59.2500 Du        
   1131 ****       253.2500 319.5000 -59.0000 Du        
   1132 ****       253.2500 319.5000 -58.7500 Du        
   1133 ****       253.2500 319.5000 -58.5000 Du        
   1134 ****       253.2500 319.7500 -59.5000 Du        
   1135 ****       253.2500 319.7500 -59.2500 Du        
   1136 ****       253.2500 319.7500 -59.0000 Du        
   1137 ****       253.2500 319.7500 -58.7500 Du        
   1138 ****       253.2500 319.7500 -58.5000 Du        
   1139 ****       253.2500 319.7500 -58.2500 Du        
   1140 ****       253.2500 320.0000 -66.5000 Du        
   1141 ****       253.2500 320.0000 -66.2500 Du        
   1142 ****       253.2500 320.0000 -59.7500 Du        
   1143 ****       253.2500 320.0000 -59.5000 Du        
   1144 ****       253.2500 320.0000 -59.2500 Du        
   1145 ****       253.2500 320.0000 -59.0000 Du        
   1146 ****       253.2500 320.0000 -58.7500 Du        
   1147 ****       253.2500 320.0000 -58.5000 Du        
   1148 ****       253.2500 320.0000 -58.2500 Du        
   1149 ****       253.2500 320.2500 -66.7500 Du        
   1150 ****       253.2500 320.2500 -66.5000 Du        
   1151 ****       253.2500 320.2500 -66.2500 Du        
   1152 ****       253.2500 320.2500 -66.0000 Du        
   1153 ****       253.2500 320.2500 -60.0000 Du        
   1154 ****       253.2500 320.2500 -59.7500 Du        
   1155 ****       253.2500 320.2500 -59.5000 Du        
   1156 ****       253.2500 320.2500 -59.2500 Du        
   1157 ****       253.2500 320.2500 -59.0000 Du        
   1158 ****       253.2500 320.2500 -58.7500 Du        
   1159 ****       253.2500 320.2500 -58.5000 Du        
   1160 ****       253.2500 320.2500 -58.2500 Du        
   1161 ****       253.2500 320.2500 -58.0000 Du        
   1162 ****       253.2500 320.5000 -66.7500 Du        
   1163 ****       253.2500 320.5000 -66.5000 Du        
   1164 ****       253.2500 320.5000 -66.2500 Du        
   1165 ****       253.2500 320.5000 -66.0000 Du        
   1166 ****       253.2500 320.5000 -65.7500 Du        
   1167 ****       253.2500 320.5000 -60.0000 Du        
   1168 ****       253.2500 320.5000 -59.7500 Du        
   1169 ****       253.2500 320.5000 -59.5000 Du        
   1170 ****       253.2500 320.5000 -59.2500 Du        
   1171 ****       253.2500 320.5000 -59.0000 Du        
   1172 ****       253.2500 320.5000 -58.7500 Du        
   1173 ****       253.2500 320.5000 -58.5000 Du        
   1174 ****       253.2500 320.5000 -58.2500 Du        
   1175 ****       253.2500 320.5000 -58.0000 Du        
   1176 ****       253.2500 320.7500 -66.7500 Du        
   1177 ****       253.2500 320.7500 -66.5000 Du        
   1178 ****       253.2500 320.7500 -66.2500 Du        
   1179 ****       253.2500 320.7500 -66.0000 Du        
   1180 ****       253.2500 320.7500 -65.7500 Du        
   1181 ****       253.2500 320.7500 -65.5000 Du        
   1182 ****       253.2500 320.7500 -60.2500 Du        
   1183 ****       253.2500 320.7500 -60.0000 Du        
   1184 ****       253.2500 320.7500 -59.7500 Du        
   1185 ****       253.2500 320.7500 -59.5000 Du        
   1186 ****       253.2500 320.7500 -59.2500 Du        
   1187 ****       253.2500 320.7500 -59.0000 Du        
   1188 ****       253.2500 320.7500 -58.7500 Du        
   1189 ****       253.2500 320.7500 -58.5000 Du        
   1190 ****       253.2500 320.7500 -58.2500 Du        
   1191 ****       253.2500 321.0000 -67.0000 Du        
   1192 ****       253.2500 321.0000 -66.7500 Du        
   1193 ****       253.2500 321.0000 -66.5000 Du        
   1194 ****       253.2500 321.0000 -66.2500 Du        
   1195 ****       253.2500 321.0000 -66.0000 Du        
   1196 ****       253.2500 321.0000 -65.7500 Du        
   1197 ****       253.2500 321.0000 -65.5000 Du        
   1198 ****       253.2500 321.0000 -65.2500 Du        
   1199 ****       253.2500 321.0000 -60.7500 Du        
   1200 ****       253.2500 321.0000 -60.2500 Du        
   1201 ****       253.2500 321.0000 -60.0000 Du        
   1202 ****       253.2500 321.0000 -59.7500 Du        
   1203 ****       253.2500 321.0000 -59.5000 Du        
   1204 ****       253.2500 321.0000 -59.2500 Du        
   1205 ****       253.2500 321.0000 -59.0000 Du        
   1206 ****       253.2500 321.0000 -58.7500 Du        
   1207 ****       253.2500 321.0000 -58.5000 Du        
   1208 ****       253.2500 321.2500 -66.7500 Du        
   1209 ****       253.2500 321.2500 -66.5000 Du        
   1210 ****       253.2500 321.2500 -66.2500 Du        
   1211 ****       253.2500 321.2500 -66.0000 Du        
   1212 ****       253.2500 321.2500 -65.7500 Du        
   1213 ****       253.2500 321.2500 -65.5000 Du        
   1214 ****       253.2500 321.2500 -65.2500 Du        
   1215 ****       253.2500 321.2500 -65.0000 Du        
   1216 ****       253.2500 321.2500 -61.0000 Du        
   1217 ****       253.2500 321.2500 -60.7500 Du        
   1218 ****       253.2500 321.2500 -60.5000 Du        
   1219 ****       253.2500 321.2500 -60.2500 Du        
   1220 ****       253.2500 321.2500 -60.0000 Du        
   1221 ****       253.2500 321.2500 -59.7500 Du        
   1222 ****       253.2500 321.2500 -59.5000 Du        
   1223 ****       253.2500 321.2500 -59.2500 Du        
   1224 ****       253.2500 321.2500 -59.0000 Du        
   1225 ****       253.2500 321.2500 -58.7500 Du        
   1226 ****       253.2500 321.5000 -66.5000 Du        
   1227 ****       253.2500 321.5000 -66.2500 Du        
   1228 ****       253.2500 321.5000 -66.0000 Du        
   1229 ****       253.2500 321.5000 -65.7500 Du        
   1230 ****       253.2500 321.5000 -65.5000 Du        
   1231 ****       253.2500 321.5000 -65.2500 Du        
   1232 ****       253.2500 321.5000 -65.0000 Du        
   1233 ****       253.2500 321.5000 -64.7500 Du        
   1234 ****       253.2500 321.5000 -61.7500 Du        
   1235 ****       253.2500 321.5000 -61.2500 Du        
   1236 ****       253.2500 321.5000 -61.0000 Du        
   1237 ****       253.2500 321.5000 -60.7500 Du        
   1238 ****       253.2500 321.5000 -60.5000 Du        
   1239 ****       253.2500 321.5000 -60.2500 Du        
   1240 ****       253.2500 321.5000 -60.0000 Du        
   1241 ****       253.2500 321.5000 -59.7500 Du        
   1242 ****       253.2500 321.5000 -59.5000 Du        
   1243 ****       253.2500 321.5000 -59.2500 Du        
   1244 ****       253.2500 321.5000 -59.0000 Du        
   1245 ****       253.2500 321.7500 -65.2500 Du        
   1246 ****       253.2500 321.7500 -65.0000 Du        
   1247 ****       253.2500 321.7500 -64.7500 Du        
   1248 ****       253.2500 321.7500 -61.2500 Du        
   1249 ****       253.2500 321.7500 -61.0000 Du        
   1250 ****       253.2500 321.7500 -60.7500 Du        
   1251 ****       253.2500 321.7500 -60.5000 Du        
   1252 ****       253.2500 321.7500 -60.2500 Du        
   1253 ****       253.2500 321.7500 -60.0000 Du        
   1254 ****       253.2500 321.7500 -59.7500 Du        
   1255 ****       253.2500 321.7500 -59.5000 Du        
   1256 ****       253.2500 321.7500 -59.2500 Du        
   1257 ****       253.2500 322.0000 -64.7500 Du        
   1258 ****       253.2500 322.0000 -61.0000 Du        
   1259 ****       253.2500 322.0000 -60.7500 Du        
   1260 ****       253.2500 322.0000 -60.5000 Du        
   1261 ****       253.2500 322.0000 -60.2500 Du        
   1262 ****       253.2500 322.0000 -60.0000 Du        
   1263 ****       253.2500 322.0000 -59.7500 Du        
   1264 ****       253.2500 322.0000 -59.5000 Du        
   1265 ****       253.5000 315.0000 -63.5000 Du        
   1266 ****       253.5000 315.0000 -63.2500 Du        
   1267 ****       253.5000 315.2500 -63.7500 Du        
   1268 ****       253.5000 315.2500 -63.5000 Du        
   1269 ****       253.5000 315.2500 -63.2500 Du        
   1270 ****       253.5000 315.5000 -64.0000 Du        
   1271 ****       253.5000 315.5000 -63.7500 Du        
   1272 ****       253.5000 315.5000 -63.5000 Du        
   1273 ****       253.5000 315.5000 -63.2500 Du        
   1274 ****       253.5000 315.7500 -64.2500 Du        
   1275 ****       253.5000 315.7500 -64.0000 Du        
   1276 ****       253.5000 315.7500 -63.7500 Du        
   1277 ****       253.5000 315.7500 -63.5000 Du        
   1278 ****       253.5000 315.7500 -63.2500 Du        
   1279 ****       253.5000 315.7500 -63.0000 Du        
   1280 ****       253.5000 316.0000 -64.2500 Du        
   1281 ****       253.5000 316.0000 -64.0000 Du        
   1282 ****       253.5000 316.0000 -63.7500 Du        
   1283 ****       253.5000 316.0000 -63.5000 Du        
   1284 ****       253.5000 316.0000 -63.2500 Du        
   1285 ****       253.5000 316.0000 -63.0000 Du        
   1286 ****       253.5000 316.2500 -64.2500 Du        
   1287 ****       253.5000 316.2500 -64.0000 Du        
   1288 ****       253.5000 316.2500 -63.7500 Du        
   1289 ****       253.5000 316.2500 -63.5000 Du        
   1290 ****       253.5000 316.2500 -63.2500 Du        
   1291 ****       253.5000 316.2500 -63.0000 Du        
   1292 ****       253.5000 318.0000 -58.5000 Du        
   1293 ****       253.5000 318.0000 -58.2500 Du        
   1294 ****       253.5000 318.0000 -58.0000 Du        
   1295 ****       253.5000 318.2500 -59.0000 Du        
   1296 ****       253.5000 318.2500 -58.7500 Du        
   1297 ****       253.5000 318.2500 -58.5000 Du        
   1298 ****       253.5000 318.2500 -58.2500 Du        
   1299 ****       253.5000 318.2500 -58.0000 Du        
   1300 ****       253.5000 318.5000 -59.0000 Du        
   1301 ****       253.5000 318.5000 -58.7500 Du        
   1302 ****       253.5000 318.5000 -58.5000 Du        
   1303 ****       253.5000 318.5000 -58.2500 Du        
   1304 ****       253.5000 318.5000 -58.0000 Du        
   1305 ****       253.5000 318.7500 -59.2500 Du        
   1306 ****       253.5000 318.7500 -59.0000 Du        
   1307 ****       253.5000 318.7500 -58.7500 Du        
   1308 ****       253.5000 318.7500 -58.5000 Du        
   1309 ****       253.5000 318.7500 -58.2500 Du        
   1310 ****       253.5000 318.7500 -58.0000 Du        
   1311 ****       253.5000 319.0000 -59.2500 Du        
   1312 ****       253.5000 319.0000 -59.0000 Du        
   1313 ****       253.5000 319.0000 -58.7500 Du        
   1314 ****       253.5000 319.0000 -58.5000 Du        
   1315 ****       253.5000 319.0000 -58.2500 Du        
   1316 ****       253.5000 319.0000 -58.0000 Du        
   1317 ****       253.5000 319.2500 -59.2500 Du        
   1318 ****       253.5000 319.2500 -59.0000 Du        
   1319 ****       253.5000 319.2500 -58.7500 Du        
   1320 ****       253.5000 319.2500 -58.5000 Du        
   1321 ****       253.5000 319.2500 -58.2500 Du        
   1322 ****       253.5000 319.2500 -58.0000 Du        
   1323 ****       253.5000 319.5000 -59.2500 Du        
   1324 ****       253.5000 319.5000 -59.0000 Du        
   1325 ****       253.5000 319.5000 -58.7500 Du        
   1326 ****       253.5000 319.5000 -58.5000 Du        
   1327 ****       253.5000 319.5000 -58.2500 Du        
   1328 ****       253.5000 319.5000 -58.0000 Du        
   1329 ****       253.5000 319.7500 -66.2500 Du        
   1330 ****       253.5000 319.7500 -59.5000 Du        
   1331 ****       253.5000 319.7500 -59.2500 Du        
   1332 ****       253.5000 319.7500 -59.0000 Du        
   1333 ****       253.5000 319.7500 -58.7500 Du        
   1334 ****       253.5000 319.7500 -58.5000 Du        
   1335 ****       253.5000 319.7500 -58.2500 Du        
   1336 ****       253.5000 319.7500 -58.0000 Du        
   1337 ****       253.5000 319.7500 -57.7500 Du        
   1338 ****       253.5000 320.0000 -66.5000 Du        
   1339 ****       253.5000 320.0000 -66.2500 Du        
   1340 ****       253.5000 320.0000 -66.0000 Du        
   1341 ****       253.5000 320.0000 -65.7500 Du        
   1342 ****       253.5000 320.0000 -59.5000 Du        
   1343 ****       253.5000 320.0000 -59.2500 Du        
   1344 ****       253.5000 320.0000 -59.0000 Du        
   1345 ****       253.5000 320.0000 -58.7500 Du        
   1346 ****       253.5000 320.0000 -58.5000 Du        
   1347 ****       253.5000 320.0000 -58.2500 Du        
   1348 ****       253.5000 320.0000 -58.0000 Du        
   1349 ****       253.5000 320.0000 -57.7500 Du        
   1350 ****       253.5000 320.2500 -66.7500 Du        
   1351 ****       253.5000 320.2500 -66.5000 Du        
   1352 ****       253.5000 320.2500 -66.2500 Du        
   1353 ****       253.5000 320.2500 -66.0000 Du        
   1354 ****       253.5000 320.2500 -65.7500 Du        
   1355 ****       253.5000 320.2500 -59.7500 Du        
   1356 ****       253.5000 320.2500 -59.5000 Du        
   1357 ****       253.5000 320.2500 -59.2500 Du        
   1358 ****       253.5000 320.2500 -59.0000 Du        
   1359 ****       253.5000 320.2500 -58.7500 Du        
   1360 ****       253.5000 320.2500 -58.5000 Du        
   1361 ****       253.5000 320.2500 -58.2500 Du        
   1362 ****       253.5000 320.2500 -58.0000 Du        
   1363 ****       253.5000 320.2500 -57.7500 Du        
   1364 ****       253.5000 320.5000 -66.7500 Du        
   1365 ****       253.5000 320.5000 -66.5000 Du        
   1366 ****       253.5000 320.5000 -66.2500 Du        
   1367 ****       253.5000 320.5000 -66.0000 Du        
   1368 ****       253.5000 320.5000 -65.7500 Du        
   1369 ****       253.5000 320.5000 -60.0000 Du        
   1370 ****       253.5000 320.5000 -59.7500 Du        
   1371 ****       253.5000 320.5000 -59.5000 Du        
   1372 ****       253.5000 320.5000 -59.2500 Du        
   1373 ****       253.5000 320.5000 -59.0000 Du        
   1374 ****       253.5000 320.5000 -58.7500 Du        
   1375 ****       253.5000 320.5000 -58.5000 Du        
   1376 ****       253.5000 320.5000 -58.2500 Du        
   1377 ****       253.5000 320.5000 -58.0000 Du        
   1378 ****       253.5000 320.5000 -57.7500 Du        
   1379 ****       253.5000 320.7500 -66.7500 Du        
   1380 ****       253.5000 320.7500 -66.5000 Du        
   1381 ****       253.5000 320.7500 -66.2500 Du        
   1382 ****       253.5000 320.7500 -66.0000 Du        
   1383 ****       253.5000 320.7500 -65.7500 Du        
   1384 ****       253.5000 320.7500 -65.5000 Du        
   1385 ****       253.5000 320.7500 -60.2500 Du        
   1386 ****       253.5000 320.7500 -60.0000 Du        
   1387 ****       253.5000 320.7500 -59.7500 Du        
   1388 ****       253.5000 320.7500 -59.5000 Du        
   1389 ****       253.5000 320.7500 -59.2500 Du        
   1390 ****       253.5000 320.7500 -59.0000 Du        
   1391 ****       253.5000 320.7500 -58.7500 Du        
   1392 ****       253.5000 320.7500 -58.5000 Du        
   1393 ****       253.5000 320.7500 -58.2500 Du        
   1394 ****       253.5000 320.7500 -58.0000 Du        
   1395 ****       253.5000 321.0000 -66.7500 Du        
   1396 ****       253.5000 321.0000 -66.5000 Du        
   1397 ****       253.5000 321.0000 -66.2500 Du        
   1398 ****       253.5000 321.0000 -66.0000 Du        
   1399 ****       253.5000 321.0000 -65.7500 Du        
   1400 ****       253.5000 321.0000 -65.5000 Du        
   1401 ****       253.5000 321.0000 -65.2500 Du        
   1402 ****       253.5000 321.0000 -60.5000 Du        
   1403 ****       253.5000 321.0000 -60.2500 Du        
   1404 ****       253.5000 321.0000 -60.0000 Du        
   1405 ****       253.5000 321.0000 -59.7500 Du        
   1406 ****       253.5000 321.0000 -59.5000 Du        
   1407 ****       253.5000 321.0000 -59.2500 Du        
   1408 ****       253.5000 321.0000 -59.0000 Du        
   1409 ****       253.5000 321.0000 -58.7500 Du        
   1410 ****       253.5000 321.0000 -58.5000 Du        
   1411 ****       253.5000 321.0000 -58.2500 Du        
   1412 ****       253.5000 321.2500 -66.7500 Du        
   1413 ****       253.5000 321.2500 -66.5000 Du        
   1414 ****       253.5000 321.2500 -66.2500 Du        
   1415 ****       253.5000 321.2500 -66.0000 Du        
   1416 ****       253.5000 321.2500 -65.7500 Du        
   1417 ****       253.5000 321.2500 -65.5000 Du        
   1418 ****       253.5000 321.2500 -65.2500 Du        
   1419 ****       253.5000 321.2500 -65.0000 Du        
   1420 ****       253.5000 321.2500 -64.7500 Du        
   1421 ****       253.5000 321.2500 -61.0000 Du        
   1422 ****       253.5000 321.2500 -60.7500 Du        
   1423 ****       253.5000 321.2500 -60.5000 Du        
   1424 ****       253.5000 321.2500 -60.2500 Du        
   1425 ****       253.5000 321.2500 -60.0000 Du        
   1426 ****       253.5000 321.2500 -59.7500 Du        
   1427 ****       253.5000 321.2500 -59.5000 Du        
   1428 ****       253.5000 321.2500 -59.2500 Du        
   1429 ****       253.5000 321.2500 -59.0000 Du        
   1430 ****       253.5000 321.2500 -58.7500 Du        
   1431 ****       253.5000 321.2500 -58.5000 Du        
   1432 ****       253.5000 321.5000 -66.5000 Du        
   1433 ****       253.5000 321.5000 -66.2500 Du        
   1434 ****       253.5000 321.5000 -66.0000 Du        
   1435 ****       253.5000 321.5000 -65.7500 Du        
   1436 ****       253.5000 321.5000 -65.5000 Du        
   1437 ****       253.5000 321.5000 -65.2500 Du        
   1438 ****       253.5000 321.5000 -65.0000 Du        
   1439 ****       253.5000 321.5000 -64.7500 Du        
   1440 ****       253.5000 321.5000 -64.2500 Du        
   1441 ****       253.5000 321.5000 -64.0000 Du        
   1442 ****       253.5000 321.5000 -61.5000 Du        
   1443 ****       253.5000 321.5000 -61.2500 Du        
   1444 ****       253.5000 321.5000 -61.0000 Du        
   1445 ****       253.5000 321.5000 -60.7500 Du        
   1446 ****       253.5000 321.5000 -60.5000 Du        
   1447 ****       253.5000 321.5000 -60.2500 Du        
   1448 ****       253.5000 321.5000 -60.0000 Du        
   1449 ****       253.5000 321.5000 -59.7500 Du        
   1450 ****       253.5000 321.5000 -59.5000 Du        
   1451 ****       253.5000 321.5000 -59.2500 Du        
   1452 ****       253.5000 321.5000 -59.0000 Du        
   1453 ****       253.5000 321.7500 -65.0000 Du        
   1454 ****       253.5000 321.7500 -64.7500 Du        
   1455 ****       253.5000 321.7500 -64.5000 Du        
   1456 ****       253.5000 321.7500 -64.2500 Du        
   1457 ****       253.5000 321.7500 -64.0000 Du        
   1458 ****       253.5000 321.7500 -61.5000 Du        
   1459 ****       253.5000 321.7500 -61.2500 Du        
   1460 ****       253.5000 321.7500 -61.0000 Du        
   1461 ****       253.5000 321.7500 -60.7500 Du        
   1462 ****       253.5000 321.7500 -60.5000 Du        
   1463 ****       253.5000 321.7500 -60.2500 Du        
   1464 ****       253.5000 321.7500 -60.0000 Du        
   1465 ****       253.5000 321.7500 -59.7500 Du        
   1466 ****       253.5000 321.7500 -59.5000 Du        
   1467 ****       253.5000 321.7500 -59.2500 Du        
   1468 ****       253.5000 322.0000 -64.5000 Du        
   1469 ****       253.5000 322.0000 -64.2500 Du        
   1470 ****       253.5000 322.0000 -61.0000 Du        
   1471 ****       253.5000 322.0000 -60.7500 Du        
   1472 ****       253.5000 322.0000 -60.5000 Du        
   1473 ****       253.5000 322.0000 -60.2500 Du        
   1474 ****       253.5000 322.0000 -60.0000 Du        
   1475 ****       253.5000 322.0000 -59.7500 Du        
   1476 ****       253.5000 322.0000 -59.5000 Du        
   1477 ****       253.7500 314.7500 -63.7500 Du        
   1478 ****       253.7500 314.7500 -63.5000 Du        
   1479 ****       253.7500 315.0000 -64.0000 Du        
   1480 ****       253.7500 315.0000 -63.7500 Du        
   1481 ****       253.7500 315.0000 -63.5000 Du        
   1482 ****       253.7500 315.0000 -63.2500 Du        
   1483 ****       253.7500 315.2500 -64.2500 Du        
   1484 ****       253.7500 315.2500 -64.0000 Du        
   1485 ****       253.7500 315.2500 -63.7500 Du        
   1486 ****       253.7500 315.2500 -63.5000 Du        
   1487 ****       253.7500 315.2500 -63.2500 Du        
   1488 ****       253.7500 315.2500 -63.0000 Du        
   1489 ****       253.7500 315.5000 -64.2500 Du        
   1490 ****       253.7500 315.5000 -64.0000 Du        
   1491 ****       253.7500 315.5000 -63.7500 Du        
   1492 ****       253.7500 315.5000 -63.5000 Du        
   1493 ****       253.7500 315.5000 -63.2500 Du        
   1494 ****       253.7500 315.5000 -63.0000 Du        
   1495 ****       253.7500 315.7500 -64.5000 Du        
   1496 ****       253.7500 315.7500 -64.2500 Du        
   1497 ****       253.7500 315.7500 -64.0000 Du        
   1498 ****       253.7500 315.7500 -63.7500 Du        
   1499 ****       253.7500 315.7500 -63.5000 Du        
   1500 ****       253.7500 315.7500 -63.2500 Du        
   1501 ****       253.7500 315.7500 -63.0000 Du        
   1502 ****       253.7500 316.0000 -64.5000 Du        
   1503 ****       253.7500 316.0000 -64.2500 Du        
   1504 ****       253.7500 316.0000 -64.0000 Du        
   1505 ****       253.7500 316.0000 -63.7500 Du        
   1506 ****       253.7500 316.0000 -63.5000 Du        
   1507 ****       253.7500 316.0000 -63.2500 Du        
   1508 ****       253.7500 316.0000 -63.0000 Du        
   1509 ****       253.7500 316.2500 -64.7500 Du        
   1510 ****       253.7500 316.2500 -64.5000 Du        
   1511 ****       253.7500 316.2500 -64.2500 Du        
   1512 ****       253.7500 316.2500 -64.0000 Du        
   1513 ****       253.7500 316.2500 -63.7500 Du        
   1514 ****       253.7500 316.2500 -63.5000 Du        
   1515 ****       253.7500 316.2500 -63.2500 Du        
   1516 ****       253.7500 316.2500 -63.0000 Du        
   1517 ****       253.7500 316.5000 -64.2500 Du        
   1518 ****       253.7500 316.5000 -64.0000 Du        
   1519 ****       253.7500 316.5000 -63.7500 Du        
   1520 ****       253.7500 317.5000 -57.2500 Du        
   1521 ****       253.7500 317.7500 -57.7500 Du        
   1522 ****       253.7500 317.7500 -57.5000 Du        
   1523 ****       253.7500 317.7500 -57.2500 Du        
   1524 ****       253.7500 318.0000 -58.5000 Du        
   1525 ****       253.7500 318.0000 -58.2500 Du        
   1526 ****       253.7500 318.0000 -58.0000 Du        
   1527 ****       253.7500 318.0000 -57.7500 Du        
   1528 ****       253.7500 318.0000 -57.5000 Du        
   1529 ****       253.7500 318.2500 -59.2500 Du        
   1530 ****       253.7500 318.2500 -59.0000 Du        
   1531 ****       253.7500 318.2500 -58.7500 Du        
   1532 ****       253.7500 318.2500 -58.5000 Du        
   1533 ****       253.7500 318.2500 -58.2500 Du        
   1534 ****       253.7500 318.2500 -58.0000 Du        
   1535 ****       253.7500 318.2500 -57.7500 Du        
   1536 ****       253.7500 318.2500 -57.5000 Du        
   1537 ****       253.7500 318.5000 -59.2500 Du        
   1538 ****       253.7500 318.5000 -59.0000 Du        
   1539 ****       253.7500 318.5000 -58.7500 Du        
   1540 ****       253.7500 318.5000 -58.5000 Du        
   1541 ****       253.7500 318.5000 -58.2500 Du        
   1542 ****       253.7500 318.5000 -58.0000 Du        
   1543 ****       253.7500 318.5000 -57.7500 Du        
   1544 ****       253.7500 318.5000 -57.5000 Du        
   1545 ****       253.7500 318.7500 -59.2500 Du        
   1546 ****       253.7500 318.7500 -59.0000 Du        
   1547 ****       253.7500 318.7500 -58.7500 Du        
   1548 ****       253.7500 318.7500 -58.5000 Du        
   1549 ****       253.7500 318.7500 -58.2500 Du        
   1550 ****       253.7500 318.7500 -58.0000 Du        
   1551 ****       253.7500 318.7500 -57.7500 Du        
   1552 ****       253.7500 319.0000 -59.2500 Du        
   1553 ****       253.7500 319.0000 -59.0000 Du        
   1554 ****       253.7500 319.0000 -58.7500 Du        
   1555 ****       253.7500 319.0000 -58.5000 Du        
   1556 ****       253.7500 319.0000 -58.2500 Du        
   1557 ****       253.7500 319.0000 -58.0000 Du        
   1558 ****       253.7500 319.0000 -57.7500 Du        
   1559 ****       253.7500 319.2500 -59.2500 Du        
   1560 ****       253.7500 319.2500 -59.0000 Du        
   1561 ****       253.7500 319.2500 -58.7500 Du        
   1562 ****       253.7500 319.2500 -58.5000 Du        
   1563 ****       253.7500 319.2500 -58.2500 Du        
   1564 ****       253.7500 319.2500 -58.0000 Du        
   1565 ****       253.7500 319.2500 -57.7500 Du        
   1566 ****       253.7500 319.5000 -59.5000 Du        
   1567 ****       253.7500 319.5000 -59.2500 Du        
   1568 ****       253.7500 319.5000 -59.0000 Du        
   1569 ****       253.7500 319.5000 -58.7500 Du        
   1570 ****       253.7500 319.5000 -58.5000 Du        
   1571 ****       253.7500 319.5000 -58.2500 Du        
   1572 ****       253.7500 319.5000 -58.0000 Du        
   1573 ****       253.7500 319.5000 -57.7500 Du        
   1574 ****       253.7500 319.5000 -57.5000 Du        
   1575 ****       253.7500 319.7500 -66.0000 Du        
   1576 ****       253.7500 319.7500 -65.7500 Du        
   1577 ****       253.7500 319.7500 -59.5000 Du        
   1578 ****       253.7500 319.7500 -59.2500 Du        
   1579 ****       253.7500 319.7500 -59.0000 Du        
   1580 ****       253.7500 319.7500 -58.7500 Du        
   1581 ****       253.7500 319.7500 -58.5000 Du        
   1582 ****       253.7500 319.7500 -58.2500 Du        
   1583 ****       253.7500 319.7500 -58.0000 Du        
   1584 ****       253.7500 319.7500 -57.7500 Du        
   1585 ****       253.7500 319.7500 -57.5000 Du        
   1586 ****       253.7500 320.0000 -66.5000 Du        
   1587 ****       253.7500 320.0000 -66.2500 Du        
   1588 ****       253.7500 320.0000 -66.0000 Du        
   1589 ****       253.7500 320.0000 -65.7500 Du        
   1590 ****       253.7500 320.0000 -59.5000 Du        
   1591 ****       253.7500 320.0000 -59.2500 Du        
   1592 ****       253.7500 320.0000 -59.0000 Du        
   1593 ****       253.7500 320.0000 -58.7500 Du        
   1594 ****       253.7500 320.0000 -58.5000 Du        
   1595 ****       253.7500 320.0000 -58.2500 Du        
   1596 ****       253.7500 320.0000 -58.0000 Du        
   1597 ****       253.7500 320.0000 -57.7500 Du        
   1598 ****       253.7500 320.0000 -57.5000 Du        
   1599 ****       253.7500 320.2500 -66.5000 Du        
   1600 ****       253.7500 320.2500 -66.2500 Du        
   1601 ****       253.7500 320.2500 -66.0000 Du        
   1602 ****       253.7500 320.2500 -65.7500 Du        
   1603 ****       253.7500 320.2500 -59.5000 Du        
   1604 ****       253.7500 320.2500 -59.2500 Du        
   1605 ****       253.7500 320.2500 -59.0000 Du        
   1606 ****       253.7500 320.2500 -58.7500 Du        
   1607 ****       253.7500 320.2500 -58.5000 Du        
   1608 ****       253.7500 320.2500 -58.2500 Du        
   1609 ****       253.7500 320.2500 -58.0000 Du        
   1610 ****       253.7500 320.2500 -57.7500 Du        
   1611 ****       253.7500 320.2500 -57.5000 Du        
   1612 ****       253.7500 320.5000 -66.7500 Du        
   1613 ****       253.7500 320.5000 -66.5000 Du        
   1614 ****       253.7500 320.5000 -66.2500 Du        
   1615 ****       253.7500 320.5000 -66.0000 Du        
   1616 ****       253.7500 320.5000 -65.7500 Du        
   1617 ****       253.7500 320.5000 -59.7500 Du        
   1618 ****       253.7500 320.5000 -59.5000 Du        
   1619 ****       253.7500 320.5000 -59.2500 Du        
   1620 ****       253.7500 320.5000 -59.0000 Du        
   1621 ****       253.7500 320.5000 -58.7500 Du        
   1622 ****       253.7500 320.5000 -58.5000 Du        
   1623 ****       253.7500 320.5000 -58.2500 Du        
   1624 ****       253.7500 320.5000 -58.0000 Du        
   1625 ****       253.7500 320.5000 -57.7500 Du        
   1626 ****       253.7500 320.7500 -66.7500 Du        
   1627 ****       253.7500 320.7500 -66.5000 Du        
   1628 ****       253.7500 320.7500 -66.2500 Du        
   1629 ****       253.7500 320.7500 -66.0000 Du        
   1630 ****       253.7500 320.7500 -65.7500 Du        
   1631 ****       253.7500 320.7500 -65.5000 Du        
   1632 ****       253.7500 320.7500 -60.0000 Du        
   1633 ****       253.7500 320.7500 -59.7500 Du        
   1634 ****       253.7500 320.7500 -59.5000 Du        
   1635 ****       253.7500 320.7500 -59.2500 Du        
   1636 ****       253.7500 320.7500 -59.0000 Du        
   1637 ****       253.7500 320.7500 -58.7500 Du        
   1638 ****       253.7500 320.7500 -58.5000 Du        
   1639 ****       253.7500 320.7500 -58.2500 Du        
   1640 ****       253.7500 320.7500 -58.0000 Du        
   1641 ****       253.7500 321.0000 -66.7500 Du        
   1642 ****       253.7500 321.0000 -66.5000 Du        
   1643 ****       253.7500 321.0000 -66.2500 Du        
   1644 ****       253.7500 321.0000 -66.0000 Du        
   1645 ****       253.7500 321.0000 -65.7500 Du        
   1646 ****       253.7500 321.0000 -65.5000 Du        
   1647 ****       253.7500 321.0000 -60.2500 Du        
   1648 ****       253.7500 321.0000 -60.0000 Du        
   1649 ****       253.7500 321.0000 -59.7500 Du        
   1650 ****       253.7500 321.0000 -59.5000 Du        
   1651 ****       253.7500 321.0000 -59.2500 Du        
   1652 ****       253.7500 321.0000 -59.0000 Du        
   1653 ****       253.7500 321.0000 -58.7500 Du        
   1654 ****       253.7500 321.0000 -58.5000 Du        
   1655 ****       253.7500 321.0000 -58.2500 Du        
   1656 ****       253.7500 321.2500 -66.7500 Du        
   1657 ****       253.7500 321.2500 -66.5000 Du        
   1658 ****       253.7500 321.2500 -66.2500 Du        
   1659 ****       253.7500 321.2500 -66.0000 Du        
   1660 ****       253.7500 321.2500 -65.7500 Du        
   1661 ****       253.7500 321.2500 -65.5000 Du        
   1662 ****       253.7500 321.2500 -60.5000 Du        
   1663 ****       253.7500 321.2500 -60.2500 Du        
   1664 ****       253.7500 321.2500 -60.0000 Du        
   1665 ****       253.7500 321.2500 -59.7500 Du        
   1666 ****       253.7500 321.2500 -59.5000 Du        
   1667 ****       253.7500 321.2500 -59.2500 Du        
   1668 ****       253.7500 321.2500 -59.0000 Du        
   1669 ****       253.7500 321.2500 -58.7500 Du        
   1670 ****       253.7500 321.2500 -58.5000 Du        
   1671 ****       253.7500 321.5000 -66.5000 Du        
   1672 ****       253.7500 321.5000 -66.2500 Du        
   1673 ****       253.7500 321.5000 -66.0000 Du        
   1674 ****       253.7500 321.5000 -65.7500 Du        
   1675 ****       253.7500 321.5000 -65.2500 Du        
   1676 ****       253.7500 321.5000 -61.5000 Du        
   1677 ****       253.7500 321.5000 -61.2500 Du        
   1678 ****       253.7500 321.5000 -61.0000 Du        
   1679 ****       253.7500 321.5000 -60.7500 Du        
   1680 ****       253.7500 321.5000 -60.5000 Du        
   1681 ****       253.7500 321.5000 -60.2500 Du        
   1682 ****       253.7500 321.5000 -60.0000 Du        
   1683 ****       253.7500 321.5000 -59.7500 Du        
   1684 ****       253.7500 321.5000 -59.5000 Du        
   1685 ****       253.7500 321.5000 -59.2500 Du        
   1686 ****       253.7500 321.5000 -59.0000 Du        
   1687 ****       253.7500 321.5000 -58.7500 Du        
   1688 ****       253.7500 321.7500 -61.2500 Du        
   1689 ****       253.7500 321.7500 -61.0000 Du        
   1690 ****       253.7500 321.7500 -60.7500 Du        
   1691 ****       253.7500 321.7500 -60.5000 Du        
   1692 ****       253.7500 321.7500 -60.2500 Du        
   1693 ****       253.7500 321.7500 -60.0000 Du        
   1694 ****       253.7500 321.7500 -59.7500 Du        
   1695 ****       253.7500 321.7500 -59.5000 Du        
   1696 ****       253.7500 321.7500 -59.2500 Du        
   1697 ****       253.7500 321.7500 -59.0000 Du        
   1698 ****       253.7500 322.0000 -60.7500 Du        
   1699 ****       253.7500 322.0000 -60.5000 Du        
   1700 ****       253.7500 322.0000 -60.2500 Du        
   1701 ****       253.7500 322.0000 -60.0000 Du        
   1702 ****       253.7500 322.0000 -59.7500 Du        
   1703 ****       253.7500 322.0000 -59.5000 Du        
   1704 ****       253.7500 322.0000 -59.2500 Du        
   1705 ****       254.0000 314.5000 -63.7500 Du        
   1706 ****       254.0000 314.5000 -63.5000 Du        
   1707 ****       254.0000 314.7500 -64.2500 Du        
   1708 ****       254.0000 314.7500 -64.0000 Du        
   1709 ****       254.0000 314.7500 -63.7500 Du        
   1710 ****       254.0000 314.7500 -63.5000 Du        
   1711 ****       254.0000 314.7500 -63.2500 Du        
   1712 ****       254.0000 315.0000 -64.2500 Du        
   1713 ****       254.0000 315.0000 -64.0000 Du        
   1714 ****       254.0000 315.0000 -63.7500 Du        
   1715 ****       254.0000 315.0000 -63.5000 Du        
   1716 ****       254.0000 315.0000 -63.2500 Du        
   1717 ****       254.0000 315.0000 -63.0000 Du        
   1718 ****       254.0000 315.2500 -64.5000 Du        
   1719 ****       254.0000 315.2500 -64.2500 Du        
   1720 ****       254.0000 315.2500 -64.0000 Du        
   1721 ****       254.0000 315.2500 -63.7500 Du        
   1722 ****       254.0000 315.2500 -63.5000 Du        
   1723 ****       254.0000 315.2500 -63.2500 Du        
   1724 ****       254.0000 315.2500 -63.0000 Du        
   1725 ****       254.0000 315.5000 -64.5000 Du        
   1726 ****       254.0000 315.5000 -64.2500 Du        
   1727 ****       254.0000 315.5000 -64.0000 Du        
   1728 ****       254.0000 315.5000 -63.7500 Du        
   1729 ****       254.0000 315.5000 -63.5000 Du        
   1730 ****       254.0000 315.5000 -63.2500 Du        
   1731 ****       254.0000 315.5000 -63.0000 Du        
   1732 ****       254.0000 315.7500 -64.7500 Du        
   1733 ****       254.0000 315.7500 -64.5000 Du        
   1734 ****       254.0000 315.7500 -64.2500 Du        
   1735 ****       254.0000 315.7500 -64.0000 Du        
   1736 ****       254.0000 315.7500 -63.7500 Du        
   1737 ****       254.0000 315.7500 -63.5000 Du        
   1738 ****       254.0000 315.7500 -63.2500 Du        
   1739 ****       254.0000 315.7500 -63.0000 Du        
   1740 ****       254.0000 316.0000 -64.7500 Du        
   1741 ****       254.0000 316.0000 -64.5000 Du        
   1742 ****       254.0000 316.0000 -64.2500 Du        
   1743 ****       254.0000 316.0000 -64.0000 Du        
   1744 ****       254.0000 316.0000 -63.7500 Du        
   1745 ****       254.0000 316.0000 -63.5000 Du        
   1746 ****       254.0000 316.0000 -63.2500 Du        
   1747 ****       254.0000 316.0000 -63.0000 Du        
   1748 ****       254.0000 316.2500 -65.0000 Du        
   1749 ****       254.0000 316.2500 -64.7500 Du        
   1750 ****       254.0000 316.2500 -64.5000 Du        
   1751 ****       254.0000 316.2500 -64.2500 Du        
   1752 ****       254.0000 316.2500 -64.0000 Du        
   1753 ****       254.0000 316.2500 -63.7500 Du        
   1754 ****       254.0000 316.2500 -63.5000 Du        
   1755 ****       254.0000 316.2500 -63.2500 Du        
   1756 ****       254.0000 316.2500 -63.0000 Du        
   1757 ****       254.0000 316.2500 -62.7500 Du        
   1758 ****       254.0000 316.5000 -64.7500 Du        
   1759 ****       254.0000 316.5000 -64.2500 Du        
   1760 ****       254.0000 316.5000 -64.0000 Du        
   1761 ****       254.0000 316.5000 -63.7500 Du        
   1762 ****       254.0000 316.7500 -65.0000 Du        
   1763 ****       254.0000 316.7500 -64.7500 Du        
   1764 ****       254.0000 316.7500 -64.2500 Du        
   1765 ****       254.0000 317.0000 -56.7500 Du        
   1766 ****       254.0000 317.2500 -57.0000 Du        
   1767 ****       254.0000 317.2500 -56.7500 Du        
   1768 ****       254.0000 317.5000 -57.5000 Du        
   1769 ****       254.0000 317.5000 -57.2500 Du        
   1770 ****       254.0000 317.5000 -57.0000 Du        
   1771 ****       254.0000 317.7500 -58.0000 Du        
   1772 ****       254.0000 317.7500 -57.7500 Du        
   1773 ****       254.0000 317.7500 -57.5000 Du        
   1774 ****       254.0000 317.7500 -57.2500 Du        
   1775 ****       254.0000 317.7500 -57.0000 Du        
   1776 ****       254.0000 318.0000 -58.7500 Du        
   1777 ****       254.0000 318.0000 -58.5000 Du        
   1778 ****       254.0000 318.0000 -58.2500 Du        
   1779 ****       254.0000 318.0000 -58.0000 Du        
   1780 ****       254.0000 318.0000 -57.7500 Du        
   1781 ****       254.0000 318.0000 -57.5000 Du        
   1782 ****       254.0000 318.0000 -57.2500 Du        
   1783 ****       254.0000 318.0000 -57.0000 Du        
   1784 ****       254.0000 318.2500 -59.5000 Du        
   1785 ****       254.0000 318.2500 -59.2500 Du        
   1786 ****       254.0000 318.2500 -59.0000 Du        
   1787 ****       254.0000 318.2500 -58.7500 Du        
   1788 ****       254.0000 318.2500 -58.5000 Du        
   1789 ****       254.0000 318.2500 -58.2500 Du        
   1790 ****       254.0000 318.2500 -58.0000 Du        
   1791 ****       254.0000 318.2500 -57.7500 Du        
   1792 ****       254.0000 318.2500 -57.5000 Du        
   1793 ****       254.0000 318.2500 -57.2500 Du        
   1794 ****       254.0000 318.5000 -59.2500 Du        
   1795 ****       254.0000 318.5000 -59.0000 Du        
   1796 ****       254.0000 318.5000 -58.7500 Du        
   1797 ****       254.0000 318.5000 -58.5000 Du        
   1798 ****       254.0000 318.5000 -58.2500 Du        
   1799 ****       254.0000 318.5000 -58.0000 Du        
   1800 ****       254.0000 318.5000 -57.7500 Du        
   1801 ****       254.0000 318.5000 -57.5000 Du        
   1802 ****       254.0000 318.5000 -57.2500 Du        
   1803 ****       254.0000 318.7500 -59.2500 Du        
   1804 ****       254.0000 318.7500 -59.0000 Du        
   1805 ****       254.0000 318.7500 -58.7500 Du        
   1806 ****       254.0000 318.7500 -58.5000 Du        
   1807 ****       254.0000 318.7500 -58.2500 Du        
   1808 ****       254.0000 318.7500 -58.0000 Du        
   1809 ****       254.0000 318.7500 -57.7500 Du        
   1810 ****       254.0000 318.7500 -57.5000 Du        
   1811 ****       254.0000 318.7500 -57.2500 Du        
   1812 ****       254.0000 319.0000 -59.2500 Du        
   1813 ****       254.0000 319.0000 -59.0000 Du        
   1814 ****       254.0000 319.0000 -58.7500 Du        
   1815 ****       254.0000 319.0000 -58.5000 Du        
   1816 ****       254.0000 319.0000 -58.2500 Du        
   1817 ****       254.0000 319.0000 -58.0000 Du        
   1818 ****       254.0000 319.0000 -57.7500 Du        
   1819 ****       254.0000 319.0000 -57.5000 Du        
   1820 ****       254.0000 319.0000 -57.2500 Du        
   1821 ****       254.0000 319.2500 -59.2500 Du        
   1822 ****       254.0000 319.2500 -59.0000 Du        
   1823 ****       254.0000 319.2500 -58.7500 Du        
   1824 ****       254.0000 319.2500 -58.5000 Du        
   1825 ****       254.0000 319.2500 -58.2500 Du        
   1826 ****       254.0000 319.2500 -58.0000 Du        
   1827 ****       254.0000 319.2500 -57.7500 Du        
   1828 ****       254.0000 319.2500 -57.5000 Du        
   1829 ****       254.0000 319.2500 -57.2500 Du        
   1830 ****       254.0000 319.5000 -59.2500 Du        
   1831 ****       254.0000 319.5000 -59.0000 Du        
   1832 ****       254.0000 319.5000 -58.7500 Du        
   1833 ****       254.0000 319.5000 -58.5000 Du        
   1834 ****       254.0000 319.5000 -58.2500 Du        
   1835 ****       254.0000 319.5000 -58.0000 Du        
   1836 ****       254.0000 319.5000 -57.7500 Du        
   1837 ****       254.0000 319.5000 -57.5000 Du        
   1838 ****       254.0000 319.5000 -57.2500 Du        
   1839 ****       254.0000 319.7500 -66.0000 Du        
   1840 ****       254.0000 319.7500 -65.7500 Du        
   1841 ****       254.0000 319.7500 -59.2500 Du        
   1842 ****       254.0000 319.7500 -59.0000 Du        
   1843 ****       254.0000 319.7500 -58.7500 Du        
   1844 ****       254.0000 319.7500 -58.5000 Du        
   1845 ****       254.0000 319.7500 -58.2500 Du        
   1846 ****       254.0000 319.7500 -58.0000 Du        
   1847 ****       254.0000 319.7500 -57.7500 Du        
   1848 ****       254.0000 319.7500 -57.5000 Du        
   1849 ****       254.0000 319.7500 -57.2500 Du        
   1850 ****       254.0000 320.0000 -66.2500 Du        
   1851 ****       254.0000 320.0000 -66.0000 Du        
   1852 ****       254.0000 320.0000 -65.7500 Du        
   1853 ****       254.0000 320.0000 -59.5000 Du        
   1854 ****       254.0000 320.0000 -59.2500 Du        
   1855 ****       254.0000 320.0000 -59.0000 Du        
   1856 ****       254.0000 320.0000 -58.7500 Du        
   1857 ****       254.0000 320.0000 -58.5000 Du        
   1858 ****       254.0000 320.0000 -58.2500 Du        
   1859 ****       254.0000 320.0000 -58.0000 Du        
   1860 ****       254.0000 320.0000 -57.7500 Du        
   1861 ****       254.0000 320.0000 -57.5000 Du        
   1862 ****       254.0000 320.0000 -57.2500 Du        
   1863 ****       254.0000 320.2500 -66.2500 Du        
   1864 ****       254.0000 320.2500 -66.0000 Du        
   1865 ****       254.0000 320.2500 -65.7500 Du        
   1866 ****       254.0000 320.2500 -59.5000 Du        
   1867 ****       254.0000 320.2500 -59.2500 Du        
   1868 ****       254.0000 320.2500 -59.0000 Du        
   1869 ****       254.0000 320.2500 -58.7500 Du        
   1870 ****       254.0000 320.2500 -58.5000 Du        
   1871 ****       254.0000 320.2500 -58.2500 Du        
   1872 ****       254.0000 320.2500 -58.0000 Du        
   1873 ****       254.0000 320.2500 -57.7500 Du        
   1874 ****       254.0000 320.2500 -57.5000 Du        
   1875 ****       254.0000 320.2500 -57.2500 Du        
   1876 ****       254.0000 320.5000 -66.5000 Du        
   1877 ****       254.0000 320.5000 -66.2500 Du        
   1878 ****       254.0000 320.5000 -66.0000 Du        
   1879 ****       254.0000 320.5000 -65.7500 Du        
   1880 ****       254.0000 320.5000 -59.5000 Du        
   1881 ****       254.0000 320.5000 -59.2500 Du        
   1882 ****       254.0000 320.5000 -59.0000 Du        
   1883 ****       254.0000 320.5000 -58.7500 Du        
   1884 ****       254.0000 320.5000 -58.5000 Du        
   1885 ****       254.0000 320.5000 -58.2500 Du        
   1886 ****       254.0000 320.5000 -58.0000 Du        
   1887 ****       254.0000 320.5000 -57.7500 Du        
   1888 ****       254.0000 320.5000 -57.5000 Du        
   1889 ****       254.0000 320.7500 -66.7500 Du        
   1890 ****       254.0000 320.7500 -66.5000 Du        
   1891 ****       254.0000 320.7500 -66.2500 Du        
   1892 ****       254.0000 320.7500 -66.0000 Du        
   1893 ****       254.0000 320.7500 -65.7500 Du        
   1894 ****       254.0000 320.7500 -59.7500 Du        
   1895 ****       254.0000 320.7500 -59.5000 Du        
   1896 ****       254.0000 320.7500 -59.2500 Du        
   1897 ****       254.0000 320.7500 -59.0000 Du        
   1898 ****       254.0000 320.7500 -58.7500 Du        
   1899 ****       254.0000 320.7500 -58.5000 Du        
   1900 ****       254.0000 320.7500 -58.2500 Du        
   1901 ****       254.0000 320.7500 -58.0000 Du        
   1902 ****       254.0000 320.7500 -57.7500 Du        
   1903 ****       254.0000 321.0000 -66.7500 Du        
   1904 ****       254.0000 321.0000 -66.5000 Du        
   1905 ****       254.0000 321.0000 -66.2500 Du        
   1906 ****       254.0000 321.0000 -66.0000 Du        
   1907 ****       254.0000 321.0000 -65.7500 Du        
   1908 ****       254.0000 321.0000 -60.0000 Du        
   1909 ****       254.0000 321.0000 -59.7500 Du        
   1910 ****       254.0000 321.0000 -59.5000 Du        
   1911 ****       254.0000 321.0000 -59.2500 Du        
   1912 ****       254.0000 321.0000 -59.0000 Du        
   1913 ****       254.0000 321.0000 -58.7500 Du        
   1914 ****       254.0000 321.0000 -58.5000 Du        
   1915 ****       254.0000 321.0000 -58.2500 Du        
   1916 ****       254.0000 321.0000 -58.0000 Du        
   1917 ****       254.0000 321.2500 -66.7500 Du        
   1918 ****       254.0000 321.2500 -66.5000 Du        
   1919 ****       254.0000 321.2500 -66.2500 Du        
   1920 ****       254.0000 321.2500 -66.0000 Du        
   1921 ****       254.0000 321.2500 -65.7500 Du        
   1922 ****       254.0000 321.2500 -60.0000 Du        
   1923 ****       254.0000 321.2500 -59.7500 Du        
   1924 ****       254.0000 321.2500 -59.5000 Du        
   1925 ****       254.0000 321.2500 -59.2500 Du        
   1926 ****       254.0000 321.2500 -59.0000 Du        
   1927 ****       254.0000 321.2500 -58.7500 Du        
   1928 ****       254.0000 321.2500 -58.5000 Du        
   1929 ****       254.0000 321.5000 -66.2500 Du        
   1930 ****       254.0000 321.5000 -66.0000 Du        
   1931 ****       254.0000 321.5000 -60.5000 Du        
   1932 ****       254.0000 321.5000 -60.2500 Du        
   1933 ****       254.0000 321.5000 -60.0000 Du        
   1934 ****       254.0000 321.5000 -59.7500 Du        
   1935 ****       254.0000 321.5000 -59.5000 Du        
   1936 ****       254.0000 321.5000 -59.2500 Du        
   1937 ****       254.0000 321.5000 -59.0000 Du        
   1938 ****       254.0000 321.5000 -58.7500 Du        
   1939 ****       254.0000 321.7500 -60.7500 Du        
   1940 ****       254.0000 321.7500 -60.5000 Du        
   1941 ****       254.0000 321.7500 -60.2500 Du        
   1942 ****       254.0000 321.7500 -60.0000 Du        
   1943 ****       254.0000 321.7500 -59.7500 Du        
   1944 ****       254.0000 321.7500 -59.5000 Du        
   1945 ****       254.0000 321.7500 -59.2500 Du        
   1946 ****       254.0000 321.7500 -59.0000 Du        
   1947 ****       254.0000 322.0000 -60.2500 Du        
   1948 ****       254.0000 322.0000 -60.0000 Du        
   1949 ****       254.0000 322.0000 -59.7500 Du        
   1950 ****       254.0000 322.0000 -59.5000 Du        
   1951 ****       254.0000 322.0000 -59.2500 Du        
   1952 ****       254.2500 314.5000 -63.7500 Du        
   1953 ****       254.2500 314.5000 -63.5000 Du        
   1954 ****       254.2500 314.7500 -64.2500 Du        
   1955 ****       254.2500 314.7500 -64.0000 Du        
   1956 ****       254.2500 314.7500 -63.7500 Du        
   1957 ****       254.2500 314.7500 -63.5000 Du        
   1958 ****       254.2500 314.7500 -63.2500 Du        
   1959 ****       254.2500 315.0000 -64.5000 Du        
   1960 ****       254.2500 315.0000 -64.2500 Du        
   1961 ****       254.2500 315.0000 -64.0000 Du        
   1962 ****       254.2500 315.0000 -63.7500 Du        
   1963 ****       254.2500 315.0000 -63.5000 Du        
   1964 ****       254.2500 315.0000 -63.2500 Du        
   1965 ****       254.2500 315.0000 -63.0000 Du        
   1966 ****       254.2500 315.2500 -64.7500 Du        
   1967 ****       254.2500 315.2500 -64.5000 Du        
   1968 ****       254.2500 315.2500 -64.2500 Du        
   1969 ****       254.2500 315.2500 -64.0000 Du        
   1970 ****       254.2500 315.2500 -63.7500 Du        
   1971 ****       254.2500 315.2500 -63.5000 Du        
   1972 ****       254.2500 315.2500 -63.2500 Du        
   1973 ****       254.2500 315.2500 -63.0000 Du        
   1974 ****       254.2500 315.5000 -64.7500 Du        
   1975 ****       254.2500 315.5000 -64.5000 Du        
   1976 ****       254.2500 315.5000 -64.2500 Du        
   1977 ****       254.2500 315.5000 -64.0000 Du        
   1978 ****       254.2500 315.5000 -63.7500 Du        
   1979 ****       254.2500 315.5000 -63.5000 Du        
   1980 ****       254.2500 315.5000 -63.2500 Du        
   1981 ****       254.2500 315.5000 -63.0000 Du        
   1982 ****       254.2500 315.7500 -65.0000 Du        
   1983 ****       254.2500 315.7500 -64.7500 Du        
   1984 ****       254.2500 315.7500 -64.5000 Du        
   1985 ****       254.2500 315.7500 -64.2500 Du        
   1986 ****       254.2500 315.7500 -64.0000 Du        
   1987 ****       254.2500 315.7500 -63.7500 Du        
   1988 ****       254.2500 315.7500 -63.5000 Du        
   1989 ****       254.2500 315.7500 -63.2500 Du        
   1990 ****       254.2500 315.7500 -63.0000 Du        
   1991 ****       254.2500 316.0000 -65.0000 Du        
   1992 ****       254.2500 316.0000 -64.7500 Du        
   1993 ****       254.2500 316.0000 -64.5000 Du        
   1994 ****       254.2500 316.0000 -64.2500 Du        
   1995 ****       254.2500 316.0000 -64.0000 Du        
   1996 ****       254.2500 316.0000 -63.7500 Du        
   1997 ****       254.2500 316.0000 -63.5000 Du        
   1998 ****       254.2500 316.0000 -63.2500 Du        
   1999 ****       254.2500 316.0000 -63.0000 Du        
   2000 ****       254.2500 316.2500 -65.0000 Du        
   2001 ****       254.2500 316.2500 -64.7500 Du        
   2002 ****       254.2500 316.2500 -64.5000 Du        
   2003 ****       254.2500 316.2500 -64.2500 Du        
   2004 ****       254.2500 316.2500 -64.0000 Du        
   2005 ****       254.2500 316.2500 -63.7500 Du        
   2006 ****       254.2500 316.2500 -63.5000 Du        
   2007 ****       254.2500 316.2500 -63.2500 Du        
   2008 ****       254.2500 316.2500 -63.0000 Du        
   2009 ****       254.2500 316.5000 -65.0000 Du        
   2010 ****       254.2500 316.5000 -64.7500 Du        
   2011 ****       254.2500 316.5000 -64.5000 Du        
   2012 ****       254.2500 316.5000 -64.2500 Du        
   2013 ****       254.2500 316.5000 -64.0000 Du        
   2014 ****       254.2500 316.5000 -63.7500 Du        
   2015 ****       254.2500 316.7500 -65.0000 Du        
   2016 ****       254.2500 316.7500 -64.7500 Du        
   2017 ****       254.2500 316.7500 -64.5000 Du        
   2018 ****       254.2500 316.7500 -64.2500 Du        
   2019 ****       254.2500 317.2500 -57.2500 Du        
   2020 ****       254.2500 317.2500 -57.0000 Du        
   2021 ****       254.2500 317.2500 -56.7500 Du        
   2022 ****       254.2500 317.5000 -57.5000 Du        
   2023 ****       254.2500 317.5000 -57.2500 Du        
   2024 ****       254.2500 317.5000 -57.0000 Du        
   2025 ****       254.2500 317.5000 -56.7500 Du        
   2026 ****       254.2500 317.7500 -58.2500 Du        
   2027 ****       254.2500 317.7500 -58.0000 Du        
   2028 ****       254.2500 317.7500 -57.7500 Du        
   2029 ****       254.2500 317.7500 -57.5000 Du        
   2030 ****       254.2500 317.7500 -57.2500 Du        
   2031 ****       254.2500 317.7500 -57.0000 Du        
   2032 ****       254.2500 317.7500 -56.7500 Du        
   2033 ****       254.2500 318.0000 -59.0000 Du        
   2034 ****       254.2500 318.0000 -58.7500 Du        
   2035 ****       254.2500 318.0000 -58.5000 Du        
   2036 ****       254.2500 318.0000 -58.2500 Du        
   2037 ****       254.2500 318.0000 -58.0000 Du        
   2038 ****       254.2500 318.0000 -57.7500 Du        
   2039 ****       254.2500 318.0000 -57.5000 Du        
   2040 ****       254.2500 318.0000 -57.2500 Du        
   2041 ****       254.2500 318.0000 -57.0000 Du        
   2042 ****       254.2500 318.2500 -59.2500 Du        
   2043 ****       254.2500 318.2500 -59.0000 Du        
   2044 ****       254.2500 318.2500 -58.7500 Du        
   2045 ****       254.2500 318.2500 -58.5000 Du        
   2046 ****       254.2500 318.2500 -58.2500 Du        
   2047 ****       254.2500 318.2500 -58.0000 Du        
   2048 ****       254.2500 318.2500 -57.7500 Du        
   2049 ****       254.2500 318.2500 -57.5000 Du        
   2050 ****       254.2500 318.2500 -57.2500 Du        
   2051 ****       254.2500 318.2500 -57.0000 Du        
   2052 ****       254.2500 318.5000 -59.2500 Du        
   2053 ****       254.2500 318.5000 -59.0000 Du        
   2054 ****       254.2500 318.5000 -58.7500 Du        
   2055 ****       254.2500 318.5000 -58.5000 Du        
   2056 ****       254.2500 318.5000 -58.2500 Du        
   2057 ****       254.2500 318.5000 -58.0000 Du        
   2058 ****       254.2500 318.5000 -57.7500 Du        
   2059 ****       254.2500 318.5000 -57.5000 Du        
   2060 ****       254.2500 318.5000 -57.2500 Du        
   2061 ****       254.2500 318.5000 -57.0000 Du        
   2062 ****       254.2500 318.7500 -59.2500 Du        
   2063 ****       254.2500 318.7500 -59.0000 Du        
   2064 ****       254.2500 318.7500 -58.7500 Du        
   2065 ****       254.2500 318.7500 -58.5000 Du        
   2066 ****       254.2500 318.7500 -58.2500 Du        
   2067 ****       254.2500 318.7500 -58.0000 Du        
   2068 ****       254.2500 318.7500 -57.7500 Du        
   2069 ****       254.2500 318.7500 -57.5000 Du        
   2070 ****       254.2500 318.7500 -57.2500 Du        
   2071 ****       254.2500 318.7500 -57.0000 Du        
   2072 ****       254.2500 319.0000 -59.2500 Du        
   2073 ****       254.2500 319.0000 -59.0000 Du        
   2074 ****       254.2500 319.0000 -58.7500 Du        
   2075 ****       254.2500 319.0000 -58.5000 Du        
   2076 ****       254.2500 319.0000 -58.2500 Du        
   2077 ****       254.2500 319.0000 -58.0000 Du        
   2078 ****       254.2500 319.0000 -57.7500 Du        
   2079 ****       254.2500 319.0000 -57.5000 Du        
   2080 ****       254.2500 319.0000 -57.2500 Du        
   2081 ****       254.2500 319.0000 -57.0000 Du        
   2082 ****       254.2500 319.2500 -59.0000 Du        
   2083 ****       254.2500 319.2500 -58.7500 Du        
   2084 ****       254.2500 319.2500 -58.5000 Du        
   2085 ****       254.2500 319.2500 -58.2500 Du        
   2086 ****       254.2500 319.2500 -58.0000 Du        
   2087 ****       254.2500 319.2500 -57.7500 Du        
   2088 ****       254.2500 319.2500 -57.5000 Du        
   2089 ****       254.2500 319.2500 -57.2500 Du        
   2090 ****       254.2500 319.2500 -57.0000 Du        
   2091 ****       254.2500 319.5000 -59.0000 Du        
   2092 ****       254.2500 319.5000 -58.7500 Du        
   2093 ****       254.2500 319.5000 -58.5000 Du        
   2094 ****       254.2500 319.5000 -58.2500 Du        
   2095 ****       254.2500 319.5000 -58.0000 Du        
   2096 ****       254.2500 319.5000 -57.7500 Du        
   2097 ****       254.2500 319.5000 -57.5000 Du        
   2098 ****       254.2500 319.5000 -57.2500 Du        
   2099 ****       254.2500 319.5000 -57.0000 Du        
   2100 ****       254.2500 319.7500 -59.0000 Du        
   2101 ****       254.2500 319.7500 -58.7500 Du        
   2102 ****       254.2500 319.7500 -58.5000 Du        
   2103 ****       254.2500 319.7500 -58.2500 Du        
   2104 ****       254.2500 319.7500 -58.0000 Du        
   2105 ****       254.2500 319.7500 -57.7500 Du        
   2106 ****       254.2500 319.7500 -57.5000 Du        
   2107 ****       254.2500 319.7500 -57.2500 Du        
   2108 ****       254.2500 319.7500 -57.0000 Du        
   2109 ****       254.2500 320.0000 -59.2500 Du        
   2110 ****       254.2500 320.0000 -59.0000 Du        
   2111 ****       254.2500 320.0000 -58.7500 Du        
   2112 ****       254.2500 320.0000 -58.5000 Du        
   2113 ****       254.2500 320.0000 -58.2500 Du        
   2114 ****       254.2500 320.0000 -58.0000 Du        
   2115 ****       254.2500 320.0000 -57.7500 Du        
   2116 ****       254.2500 320.0000 -57.5000 Du        
   2117 ****       254.2500 320.0000 -57.2500 Du        
   2118 ****       254.2500 320.0000 -57.0000 Du        
   2119 ****       254.2500 320.2500 -59.2500 Du        
   2120 ****       254.2500 320.2500 -59.0000 Du        
   2121 ****       254.2500 320.2500 -58.7500 Du        
   2122 ****       254.2500 320.2500 -58.5000 Du        
   2123 ****       254.2500 320.2500 -58.2500 Du        
   2124 ****       254.2500 320.2500 -58.0000 Du        
   2125 ****       254.2500 320.2500 -57.7500 Du        
   2126 ****       254.2500 320.2500 -57.5000 Du        
   2127 ****       254.2500 320.2500 -57.2500 Du        
   2128 ****       254.2500 320.5000 -66.2500 Du        
   2129 ****       254.2500 320.5000 -59.2500 Du        
   2130 ****       254.2500 320.5000 -59.0000 Du        
   2131 ****       254.2500 320.5000 -58.7500 Du        
   2132 ****       254.2500 320.5000 -58.5000 Du        
   2133 ****       254.2500 320.5000 -58.2500 Du        
   2134 ****       254.2500 320.5000 -58.0000 Du        
   2135 ****       254.2500 320.5000 -57.7500 Du        
   2136 ****       254.2500 320.5000 -57.5000 Du        
   2137 ****       254.2500 320.7500 -66.2500 Du        
   2138 ****       254.2500 320.7500 -59.2500 Du        
   2139 ****       254.2500 320.7500 -59.0000 Du        
   2140 ****       254.2500 320.7500 -58.7500 Du        
   2141 ****       254.2500 320.7500 -58.5000 Du        
   2142 ****       254.2500 320.7500 -58.2500 Du        
   2143 ****       254.2500 320.7500 -58.0000 Du        
   2144 ****       254.2500 320.7500 -57.7500 Du        
   2145 ****       254.2500 321.0000 -66.7500 Du        
   2146 ****       254.2500 321.0000 -66.5000 Du        
   2147 ****       254.2500 321.0000 -66.2500 Du        
   2148 ****       254.2500 321.0000 -59.5000 Du        
   2149 ****       254.2500 321.0000 -59.2500 Du        
   2150 ****       254.2500 321.0000 -59.0000 Du        
   2151 ****       254.2500 321.0000 -58.7500 Du        
   2152 ****       254.2500 321.0000 -58.5000 Du        
   2153 ****       254.2500 321.0000 -58.2500 Du        
   2154 ****       254.2500 321.0000 -58.0000 Du        
   2155 ****       254.2500 321.2500 -59.7500 Du        
   2156 ****       254.2500 321.2500 -59.5000 Du        
   2157 ****       254.2500 321.2500 -59.2500 Du        
   2158 ****       254.2500 321.2500 -59.0000 Du        
   2159 ****       254.2500 321.2500 -58.7500 Du        
   2160 ****       254.2500 321.2500 -58.5000 Du        
   2161 ****       254.2500 321.2500 -58.2500 Du        
   2162 ****       254.2500 321.5000 -59.7500 Du        
   2163 ****       254.2500 321.5000 -59.5000 Du        
   2164 ****       254.2500 321.5000 -59.2500 Du        
   2165 ****       254.2500 321.5000 -59.0000 Du        
   2166 ****       254.2500 321.5000 -58.7500 Du        
   2167 ****       254.2500 321.5000 -58.5000 Du        
   2168 ****       254.2500 321.7500 -60.0000 Du        
   2169 ****       254.2500 321.7500 -59.7500 Du        
   2170 ****       254.2500 321.7500 -59.5000 Du        
   2171 ****       254.2500 321.7500 -59.2500 Du        
   2172 ****       254.2500 321.7500 -59.0000 Du        
   2173 ****       254.2500 322.0000 -60.0000 Du        
   2174 ****       254.2500 322.0000 -59.7500 Du        
   2175 ****       254.2500 322.0000 -59.5000 Du        
   2176 ****       254.5000 314.7500 -63.7500 Du        
   2177 ****       254.5000 314.7500 -63.5000 Du        
   2178 ****       254.5000 315.0000 -64.5000 Du        
   2179 ****       254.5000 315.0000 -64.2500 Du        
   2180 ****       254.5000 315.0000 -64.0000 Du        
   2181 ****       254.5000 315.0000 -63.7500 Du        
   2182 ****       254.5000 315.0000 -63.5000 Du        
   2183 ****       254.5000 315.0000 -63.2500 Du        
   2184 ****       254.5000 315.2500 -64.7500 Du        
   2185 ****       254.5000 315.2500 -64.5000 Du        
   2186 ****       254.5000 315.2500 -64.2500 Du        
   2187 ****       254.5000 315.2500 -64.0000 Du        
   2188 ****       254.5000 315.2500 -63.7500 Du        
   2189 ****       254.5000 315.2500 -63.5000 Du        
   2190 ****       254.5000 315.2500 -63.2500 Du        
   2191 ****       254.5000 315.5000 -65.0000 Du        
   2192 ****       254.5000 315.5000 -64.7500 Du        
   2193 ****       254.5000 315.5000 -64.5000 Du        
   2194 ****       254.5000 315.5000 -64.2500 Du        
   2195 ****       254.5000 315.5000 -64.0000 Du        
   2196 ****       254.5000 315.5000 -63.7500 Du        
   2197 ****       254.5000 315.5000 -63.5000 Du        
   2198 ****       254.5000 315.5000 -63.2500 Du        
   2199 ****       254.5000 315.5000 -63.0000 Du        
   2200 ****       254.5000 315.7500 -65.2500 Du        
   2201 ****       254.5000 315.7500 -65.0000 Du        
   2202 ****       254.5000 315.7500 -64.7500 Du        
   2203 ****       254.5000 315.7500 -64.5000 Du        
   2204 ****       254.5000 315.7500 -64.2500 Du        
   2205 ****       254.5000 315.7500 -64.0000 Du        
   2206 ****       254.5000 315.7500 -63.7500 Du        
   2207 ****       254.5000 315.7500 -63.5000 Du        
   2208 ****       254.5000 315.7500 -63.2500 Du        
   2209 ****       254.5000 315.7500 -63.0000 Du        
   2210 ****       254.5000 316.0000 -65.5000 Du        
   2211 ****       254.5000 316.0000 -65.2500 Du        
   2212 ****       254.5000 316.0000 -65.0000 Du        
   2213 ****       254.5000 316.0000 -64.7500 Du        
   2214 ****       254.5000 316.0000 -64.5000 Du        
   2215 ****       254.5000 316.0000 -64.2500 Du        
   2216 ****       254.5000 316.0000 -64.0000 Du        
   2217 ****       254.5000 316.0000 -63.7500 Du        
   2218 ****       254.5000 316.0000 -63.5000 Du        
   2219 ****       254.5000 316.0000 -63.2500 Du        
   2220 ****       254.5000 316.0000 -63.0000 Du        
   2221 ****       254.5000 316.2500 -65.5000 Du        
   2222 ****       254.5000 316.2500 -65.2500 Du        
   2223 ****       254.5000 316.2500 -65.0000 Du        
   2224 ****       254.5000 316.2500 -64.7500 Du        
   2225 ****       254.5000 316.2500 -64.5000 Du        
   2226 ****       254.5000 316.2500 -64.2500 Du        
   2227 ****       254.5000 316.2500 -64.0000 Du        
   2228 ****       254.5000 316.2500 -63.7500 Du        
   2229 ****       254.5000 316.2500 -63.5000 Du        
   2230 ****       254.5000 316.2500 -63.2500 Du        
   2231 ****       254.5000 316.2500 -63.0000 Du        
   2232 ****       254.5000 316.2500 -62.7500 Du        
   2233 ****       254.5000 316.5000 -65.0000 Du        
   2234 ****       254.5000 316.5000 -64.7500 Du        
   2235 ****       254.5000 316.5000 -64.5000 Du        
   2236 ****       254.5000 316.5000 -64.2500 Du        
   2237 ****       254.5000 316.5000 -64.0000 Du        
   2238 ****       254.5000 316.5000 -63.7500 Du        
   2239 ****       254.5000 316.7500 -65.0000 Du        
   2240 ****       254.5000 316.7500 -64.7500 Du        
   2241 ****       254.5000 316.7500 -64.5000 Du        
   2242 ****       254.5000 316.7500 -64.2500 Du        
   2243 ****       254.5000 316.7500 -64.0000 Du        
   2244 ****       254.5000 317.0000 -64.5000 Du        
   2245 ****       254.5000 317.0000 -64.2500 Du        
   2246 ****       254.5000 317.0000 -64.0000 Du        
   2247 ****       254.5000 317.2500 -57.2500 Du        
   2248 ****       254.5000 317.2500 -57.0000 Du        
   2249 ****       254.5000 317.5000 -57.5000 Du        
   2250 ****       254.5000 317.5000 -57.2500 Du        
   2251 ****       254.5000 317.5000 -57.0000 Du        
   2252 ****       254.5000 317.7500 -58.2500 Du        
   2253 ****       254.5000 317.7500 -58.0000 Du        
   2254 ****       254.5000 317.7500 -57.7500 Du        
   2255 ****       254.5000 317.7500 -57.5000 Du        
   2256 ****       254.5000 317.7500 -57.2500 Du        
   2257 ****       254.5000 317.7500 -57.0000 Du        
   2258 ****       254.5000 317.7500 -56.7500 Du        
   2259 ****       254.5000 318.0000 -58.7500 Du        
   2260 ****       254.5000 318.0000 -58.5000 Du        
   2261 ****       254.5000 318.0000 -58.2500 Du        
   2262 ****       254.5000 318.0000 -58.0000 Du        
   2263 ****       254.5000 318.0000 -57.7500 Du        
   2264 ****       254.5000 318.0000 -57.5000 Du        
   2265 ****       254.5000 318.0000 -57.2500 Du        
   2266 ****       254.5000 318.0000 -57.0000 Du        
   2267 ****       254.5000 318.0000 -56.7500 Du        
   2268 ****       254.5000 318.2500 -59.0000 Du        
   2269 ****       254.5000 318.2500 -58.7500 Du        
   2270 ****       254.5000 318.2500 -58.5000 Du        
   2271 ****       254.5000 318.2500 -58.2500 Du        
   2272 ****       254.5000 318.2500 -58.0000 Du        
   2273 ****       254.5000 318.2500 -57.7500 Du        
   2274 ****       254.5000 318.2500 -57.5000 Du        
   2275 ****       254.5000 318.2500 -57.2500 Du        
   2276 ****       254.5000 318.2500 -57.0000 Du        
   2277 ****       254.5000 318.5000 -59.0000 Du        
   2278 ****       254.5000 318.5000 -58.7500 Du        
   2279 ****       254.5000 318.5000 -58.5000 Du        
   2280 ****       254.5000 318.5000 -58.2500 Du        
   2281 ****       254.5000 318.5000 -58.0000 Du        
   2282 ****       254.5000 318.5000 -57.7500 Du        
   2283 ****       254.5000 318.5000 -57.5000 Du        
   2284 ****       254.5000 318.5000 -57.2500 Du        
   2285 ****       254.5000 318.5000 -57.0000 Du        
   2286 ****       254.5000 318.7500 -59.0000 Du        
   2287 ****       254.5000 318.7500 -58.7500 Du        
   2288 ****       254.5000 318.7500 -58.5000 Du        
   2289 ****       254.5000 318.7500 -58.2500 Du        
   2290 ****       254.5000 318.7500 -58.0000 Du        
   2291 ****       254.5000 318.7500 -57.7500 Du        
   2292 ****       254.5000 318.7500 -57.5000 Du        
   2293 ****       254.5000 318.7500 -57.2500 Du        
   2294 ****       254.5000 318.7500 -57.0000 Du        
   2295 ****       254.5000 319.0000 -59.0000 Du        
   2296 ****       254.5000 319.0000 -58.7500 Du        
   2297 ****       254.5000 319.0000 -58.5000 Du        
   2298 ****       254.5000 319.0000 -58.2500 Du        
   2299 ****       254.5000 319.0000 -58.0000 Du        
   2300 ****       254.5000 319.0000 -57.7500 Du        
   2301 ****       254.5000 319.0000 -57.5000 Du        
   2302 ****       254.5000 319.0000 -57.2500 Du        
   2303 ****       254.5000 319.0000 -57.0000 Du        
   2304 ****       254.5000 319.2500 -58.7500 Du        
   2305 ****       254.5000 319.2500 -58.5000 Du        
   2306 ****       254.5000 319.2500 -58.2500 Du        
   2307 ****       254.5000 319.2500 -58.0000 Du        
   2308 ****       254.5000 319.2500 -57.7500 Du        
   2309 ****       254.5000 319.2500 -57.5000 Du        
   2310 ****       254.5000 319.2500 -57.2500 Du        
   2311 ****       254.5000 319.2500 -57.0000 Du        
   2312 ****       254.5000 319.5000 -58.7500 Du        
   2313 ****       254.5000 319.5000 -58.5000 Du        
   2314 ****       254.5000 319.5000 -58.2500 Du        
   2315 ****       254.5000 319.5000 -58.0000 Du        
   2316 ****       254.5000 319.5000 -57.7500 Du        
   2317 ****       254.5000 319.5000 -57.5000 Du        
   2318 ****       254.5000 319.5000 -57.2500 Du        
   2319 ****       254.5000 319.5000 -57.0000 Du        
   2320 ****       254.5000 319.7500 -58.7500 Du        
   2321 ****       254.5000 319.7500 -58.5000 Du        
   2322 ****       254.5000 319.7500 -58.2500 Du        
   2323 ****       254.5000 319.7500 -58.0000 Du        
   2324 ****       254.5000 319.7500 -57.7500 Du        
   2325 ****       254.5000 319.7500 -57.5000 Du        
   2326 ****       254.5000 319.7500 -57.2500 Du        
   2327 ****       254.5000 319.7500 -57.0000 Du        
   2328 ****       254.5000 320.0000 -58.7500 Du        
   2329 ****       254.5000 320.0000 -58.5000 Du        
   2330 ****       254.5000 320.0000 -58.2500 Du        
   2331 ****       254.5000 320.0000 -58.0000 Du        
   2332 ****       254.5000 320.0000 -57.7500 Du        
   2333 ****       254.5000 320.0000 -57.5000 Du        
   2334 ****       254.5000 320.0000 -57.2500 Du        
   2335 ****       254.5000 320.2500 -58.7500 Du        
   2336 ****       254.5000 320.2500 -58.5000 Du        
   2337 ****       254.5000 320.2500 -58.2500 Du        
   2338 ****       254.5000 320.2500 -58.0000 Du        
   2339 ****       254.5000 320.2500 -57.7500 Du        
   2340 ****       254.5000 320.2500 -57.5000 Du        
   2341 ****       254.5000 320.2500 -57.2500 Du        
   2342 ****       254.5000 320.5000 -59.0000 Du        
   2343 ****       254.5000 320.5000 -58.7500 Du        
   2344 ****       254.5000 320.5000 -58.5000 Du        
   2345 ****       254.5000 320.5000 -58.2500 Du        
   2346 ****       254.5000 320.5000 -58.0000 Du        
   2347 ****       254.5000 320.5000 -57.7500 Du        
   2348 ****       254.5000 320.5000 -57.5000 Du        
   2349 ****       254.5000 320.7500 -59.0000 Du        
   2350 ****       254.5000 320.7500 -58.7500 Du        
   2351 ****       254.5000 320.7500 -58.5000 Du        
   2352 ****       254.5000 320.7500 -58.2500 Du        
   2353 ****       254.5000 320.7500 -58.0000 Du        
   2354 ****       254.5000 320.7500 -57.7500 Du        
   2355 ****       254.5000 320.7500 -57.5000 Du        
   2356 ****       254.5000 321.0000 -59.2500 Du        
   2357 ****       254.5000 321.0000 -59.0000 Du        
   2358 ****       254.5000 321.0000 -58.7500 Du        
   2359 ****       254.5000 321.0000 -58.5000 Du        
   2360 ****       254.5000 321.0000 -58.2500 Du        
   2361 ****       254.5000 321.0000 -58.0000 Du        
   2362 ****       254.5000 321.2500 -59.2500 Du        
   2363 ****       254.5000 321.2500 -59.0000 Du        
   2364 ****       254.5000 321.2500 -58.7500 Du        
   2365 ****       254.5000 321.2500 -58.5000 Du        
   2366 ****       254.5000 321.2500 -58.2500 Du        
   2367 ****       254.5000 321.5000 -59.5000 Du        
   2368 ****       254.5000 321.5000 -59.2500 Du        
   2369 ****       254.5000 321.5000 -59.0000 Du        
   2370 ****       254.5000 321.5000 -58.7500 Du        
   2371 ****       254.5000 321.5000 -58.5000 Du        
   2372 ****       254.5000 321.7500 -59.5000 Du        
   2373 ****       254.5000 321.7500 -59.2500 Du        
   2374 ****       254.5000 321.7500 -59.0000 Du        
   2375 ****       254.5000 322.0000 -59.5000 Du        
   2376 ****       254.5000 322.0000 -59.2500 Du        
   2377 ****       254.7500 315.2500 -64.7500 Du        
   2378 ****       254.7500 315.2500 -64.5000 Du        
   2379 ****       254.7500 315.2500 -64.2500 Du        
   2380 ****       254.7500 315.2500 -64.0000 Du        
   2381 ****       254.7500 315.2500 -63.7500 Du        
   2382 ****       254.7500 315.2500 -63.5000 Du        
   2383 ****       254.7500 315.5000 -65.0000 Du        
   2384 ****       254.7500 315.5000 -64.7500 Du        
   2385 ****       254.7500 315.5000 -64.5000 Du        
   2386 ****       254.7500 315.5000 -64.2500 Du        
   2387 ****       254.7500 315.5000 -64.0000 Du        
   2388 ****       254.7500 315.5000 -63.7500 Du        
   2389 ****       254.7500 315.5000 -63.5000 Du        
   2390 ****       254.7500 315.5000 -63.2500 Du        
   2391 ****       254.7500 315.7500 -65.5000 Du        
   2392 ****       254.7500 315.7500 -65.2500 Du        
   2393 ****       254.7500 315.7500 -65.0000 Du        
   2394 ****       254.7500 315.7500 -64.7500 Du        
   2395 ****       254.7500 315.7500 -64.5000 Du        
   2396 ****       254.7500 315.7500 -64.2500 Du        
   2397 ****       254.7500 315.7500 -64.0000 Du        
   2398 ****       254.7500 315.7500 -63.7500 Du        
   2399 ****       254.7500 315.7500 -63.5000 Du        
   2400 ****       254.7500 315.7500 -63.2500 Du        
   2401 ****       254.7500 315.7500 -63.0000 Du        
   2402 ****       254.7500 316.0000 -65.7500 Du        
   2403 ****       254.7500 316.0000 -65.5000 Du        
   2404 ****       254.7500 316.0000 -65.2500 Du        
   2405 ****       254.7500 316.0000 -65.0000 Du        
   2406 ****       254.7500 316.0000 -64.7500 Du        
   2407 ****       254.7500 316.0000 -64.5000 Du        
   2408 ****       254.7500 316.0000 -64.2500 Du        
   2409 ****       254.7500 316.0000 -64.0000 Du        
   2410 ****       254.7500 316.0000 -63.7500 Du        
   2411 ****       254.7500 316.0000 -63.5000 Du        
   2412 ****       254.7500 316.0000 -63.2500 Du        
   2413 ****       254.7500 316.0000 -63.0000 Du        
   2414 ****       254.7500 316.2500 -65.7500 Du        
   2415 ****       254.7500 316.2500 -65.5000 Du        
   2416 ****       254.7500 316.2500 -65.2500 Du        
   2417 ****       254.7500 316.2500 -65.0000 Du        
   2418 ****       254.7500 316.2500 -64.7500 Du        
   2419 ****       254.7500 316.2500 -64.5000 Du        
   2420 ****       254.7500 316.2500 -64.2500 Du        
   2421 ****       254.7500 316.2500 -64.0000 Du        
   2422 ****       254.7500 316.2500 -63.7500 Du        
   2423 ****       254.7500 316.2500 -63.5000 Du        
   2424 ****       254.7500 316.2500 -63.2500 Du        
   2425 ****       254.7500 316.2500 -63.0000 Du        
   2426 ****       254.7500 316.5000 -65.2500 Du        
   2427 ****       254.7500 316.5000 -65.0000 Du        
   2428 ****       254.7500 316.5000 -64.7500 Du        
   2429 ****       254.7500 316.5000 -64.5000 Du        
   2430 ****       254.7500 316.5000 -64.2500 Du        
   2431 ****       254.7500 316.5000 -64.0000 Du        
   2432 ****       254.7500 316.5000 -63.7500 Du        
   2433 ****       254.7500 316.5000 -63.5000 Du        
   2434 ****       254.7500 316.7500 -65.2500 Du        
   2435 ****       254.7500 316.7500 -65.0000 Du        
   2436 ****       254.7500 316.7500 -64.7500 Du        
   2437 ****       254.7500 316.7500 -64.5000 Du        
   2438 ****       254.7500 316.7500 -64.2500 Du        
   2439 ****       254.7500 316.7500 -64.0000 Du        
   2440 ****       254.7500 316.7500 -63.7500 Du        
   2441 ****       254.7500 317.0000 -65.0000 Du        
   2442 ****       254.7500 317.0000 -64.7500 Du        
   2443 ****       254.7500 317.0000 -64.5000 Du        
   2444 ****       254.7500 317.0000 -64.2500 Du        
   2445 ****       254.7500 317.0000 -64.0000 Du        
   2446 ****       254.7500 317.0000 -63.7500 Du        
   2447 ****       254.7500 317.2500 -65.0000 Du        
   2448 ****       254.7500 317.2500 -64.5000 Du        
   2449 ****       254.7500 317.2500 -64.2500 Du        
   2450 ****       254.7500 317.2500 -64.0000 Du        
   2451 ****       254.7500 317.2500 -63.7500 Du        
   2452 ****       254.7500 317.2500 -57.5000 Du        
   2453 ****       254.7500 317.2500 -57.2500 Du        
   2454 ****       254.7500 317.5000 -58.0000 Du        
   2455 ****       254.7500 317.5000 -57.7500 Du        
   2456 ****       254.7500 317.5000 -57.5000 Du        
   2457 ****       254.7500 317.5000 -57.2500 Du        
   2458 ****       254.7500 317.7500 -58.7500 Du        
   2459 ****       254.7500 317.7500 -58.5000 Du        
   2460 ****       254.7500 317.7500 -58.2500 Du        
   2461 ****       254.7500 317.7500 -58.0000 Du        
   2462 ****       254.7500 317.7500 -57.7500 Du        
   2463 ****       254.7500 317.7500 -57.5000 Du        
   2464 ****       254.7500 317.7500 -57.2500 Du        
   2465 ****       254.7500 317.7500 -57.0000 Du        
   2466 ****       254.7500 318.0000 -59.0000 Du        
   2467 ****       254.7500 318.0000 -58.7500 Du        
   2468 ****       254.7500 318.0000 -58.5000 Du        
   2469 ****       254.7500 318.0000 -58.2500 Du        
   2470 ****       254.7500 318.0000 -58.0000 Du        
   2471 ****       254.7500 318.0000 -57.7500 Du        
   2472 ****       254.7500 318.0000 -57.5000 Du        
   2473 ****       254.7500 318.0000 -57.2500 Du        
   2474 ****       254.7500 318.0000 -57.0000 Du        
   2475 ****       254.7500 318.2500 -59.2500 Du        
   2476 ****       254.7500 318.2500 -59.0000 Du        
   2477 ****       254.7500 318.2500 -58.7500 Du        
   2478 ****       254.7500 318.2500 -58.5000 Du        
   2479 ****       254.7500 318.2500 -58.2500 Du        
   2480 ****       254.7500 318.2500 -58.0000 Du        
   2481 ****       254.7500 318.2500 -57.7500 Du        
   2482 ****       254.7500 318.2500 -57.5000 Du        
   2483 ****       254.7500 318.2500 -57.2500 Du        
   2484 ****       254.7500 318.2500 -57.0000 Du        
   2485 ****       254.7500 318.5000 -59.0000 Du        
   2486 ****       254.7500 318.5000 -58.7500 Du        
   2487 ****       254.7500 318.5000 -58.5000 Du        
   2488 ****       254.7500 318.5000 -58.2500 Du        
   2489 ****       254.7500 318.5000 -58.0000 Du        
   2490 ****       254.7500 318.5000 -57.7500 Du        
   2491 ****       254.7500 318.5000 -57.5000 Du        
   2492 ****       254.7500 318.5000 -57.2500 Du        
   2493 ****       254.7500 318.5000 -57.0000 Du        
   2494 ****       254.7500 318.7500 -59.0000 Du        
   2495 ****       254.7500 318.7500 -58.7500 Du        
   2496 ****       254.7500 318.7500 -58.5000 Du        
   2497 ****       254.7500 318.7500 -58.2500 Du        
   2498 ****       254.7500 318.7500 -58.0000 Du        
   2499 ****       254.7500 318.7500 -57.7500 Du        
   2500 ****       254.7500 318.7500 -57.5000 Du        
   2501 ****       254.7500 318.7500 -57.2500 Du        
   2502 ****       254.7500 318.7500 -57.0000 Du        
   2503 ****       254.7500 319.0000 -58.7500 Du        
   2504 ****       254.7500 319.0000 -58.5000 Du        
   2505 ****       254.7500 319.0000 -58.2500 Du        
   2506 ****       254.7500 319.0000 -58.0000 Du        
   2507 ****       254.7500 319.0000 -57.7500 Du        
   2508 ****       254.7500 319.0000 -57.5000 Du        
   2509 ****       254.7500 319.0000 -57.2500 Du        
   2510 ****       254.7500 319.2500 -58.7500 Du        
   2511 ****       254.7500 319.2500 -58.5000 Du        
   2512 ****       254.7500 319.2500 -58.2500 Du        
   2513 ****       254.7500 319.2500 -58.0000 Du        
   2514 ****       254.7500 319.2500 -57.7500 Du        
   2515 ****       254.7500 319.2500 -57.5000 Du        
   2516 ****       254.7500 319.2500 -57.2500 Du        
   2517 ****       254.7500 319.5000 -58.5000 Du        
   2518 ****       254.7500 319.5000 -58.2500 Du        
   2519 ****       254.7500 319.5000 -58.0000 Du        
   2520 ****       254.7500 319.5000 -57.7500 Du        
   2521 ****       254.7500 319.5000 -57.5000 Du        
   2522 ****       254.7500 319.5000 -57.2500 Du        
   2523 ****       254.7500 319.7500 -58.7500 Du        
   2524 ****       254.7500 319.7500 -58.5000 Du        
   2525 ****       254.7500 319.7500 -58.2500 Du        
   2526 ****       254.7500 319.7500 -58.0000 Du        
   2527 ****       254.7500 319.7500 -57.7500 Du        
   2528 ****       254.7500 319.7500 -57.5000 Du        
   2529 ****       254.7500 319.7500 -57.2500 Du        
   2530 ****       254.7500 320.0000 -58.7500 Du        
   2531 ****       254.7500 320.0000 -58.5000 Du        
   2532 ****       254.7500 320.0000 -58.2500 Du        
   2533 ****       254.7500 320.0000 -58.0000 Du        
   2534 ****       254.7500 320.0000 -57.7500 Du        
   2535 ****       254.7500 320.0000 -57.5000 Du        
   2536 ****       254.7500 320.0000 -57.2500 Du        
   2537 ****       254.7500 320.2500 -58.7500 Du        
   2538 ****       254.7500 320.2500 -58.5000 Du        
   2539 ****       254.7500 320.2500 -58.2500 Du        
   2540 ****       254.7500 320.2500 -58.0000 Du        
   2541 ****       254.7500 320.2500 -57.7500 Du        
   2542 ****       254.7500 320.2500 -57.5000 Du        
   2543 ****       254.7500 320.2500 -57.2500 Du        
   2544 ****       254.7500 320.5000 -58.7500 Du        
   2545 ****       254.7500 320.5000 -58.5000 Du        
   2546 ****       254.7500 320.5000 -58.2500 Du        
   2547 ****       254.7500 320.5000 -58.0000 Du        
   2548 ****       254.7500 320.5000 -57.7500 Du        
   2549 ****       254.7500 320.5000 -57.5000 Du        
   2550 ****       254.7500 320.5000 -57.2500 Du        
   2551 ****       254.7500 320.7500 -58.7500 Du        
   2552 ****       254.7500 320.7500 -58.5000 Du        
   2553 ****       254.7500 320.7500 -58.2500 Du        
   2554 ****       254.7500 320.7500 -58.0000 Du        
   2555 ****       254.7500 320.7500 -57.7500 Du        
   2556 ****       254.7500 320.7500 -57.5000 Du        
   2557 ****       254.7500 321.0000 -58.7500 Du        
   2558 ****       254.7500 321.0000 -58.5000 Du        
   2559 ****       254.7500 321.0000 -58.2500 Du        
   2560 ****       254.7500 321.0000 -58.0000 Du        
   2561 ****       254.7500 321.0000 -57.7500 Du        
   2562 ****       254.7500 321.2500 -59.0000 Du        
   2563 ****       254.7500 321.2500 -58.7500 Du        
   2564 ****       254.7500 321.2500 -58.5000 Du        
   2565 ****       254.7500 321.2500 -58.2500 Du        
   2566 ****       254.7500 321.2500 -58.0000 Du        
   2567 ****       254.7500 321.5000 -59.0000 Du        
   2568 ****       254.7500 321.5000 -58.7500 Du        
   2569 ****       254.7500 321.5000 -58.5000 Du        
   2570 ****       254.7500 321.7500 -59.0000 Du        
   2571 ****       255.0000 315.5000 -65.2500 Du        
   2572 ****       255.0000 315.5000 -65.0000 Du        
   2573 ****       255.0000 315.5000 -64.7500 Du        
   2574 ****       255.0000 315.5000 -64.5000 Du        
   2575 ****       255.0000 315.5000 -64.2500 Du        
   2576 ****       255.0000 315.7500 -65.7500 Du        
   2577 ****       255.0000 315.7500 -65.5000 Du        
   2578 ****       255.0000 315.7500 -65.2500 Du        
   2579 ****       255.0000 315.7500 -65.0000 Du        
   2580 ****       255.0000 315.7500 -64.7500 Du        
   2581 ****       255.0000 315.7500 -64.5000 Du        
   2582 ****       255.0000 315.7500 -64.2500 Du        
   2583 ****       255.0000 315.7500 -64.0000 Du        
   2584 ****       255.0000 315.7500 -63.7500 Du        
   2585 ****       255.0000 315.7500 -63.5000 Du        
   2586 ****       255.0000 316.0000 -65.7500 Du        
   2587 ****       255.0000 316.0000 -65.5000 Du        
   2588 ****       255.0000 316.0000 -65.2500 Du        
   2589 ****       255.0000 316.0000 -65.0000 Du        
   2590 ****       255.0000 316.0000 -64.7500 Du        
   2591 ****       255.0000 316.0000 -64.5000 Du        
   2592 ****       255.0000 316.0000 -64.2500 Du        
   2593 ****       255.0000 316.0000 -64.0000 Du        
   2594 ****       255.0000 316.0000 -63.7500 Du        
   2595 ****       255.0000 316.0000 -63.5000 Du        
   2596 ****       255.0000 316.0000 -63.2500 Du        
   2597 ****       255.0000 316.2500 -65.7500 Du        
   2598 ****       255.0000 316.2500 -65.5000 Du        
   2599 ****       255.0000 316.2500 -65.2500 Du        
   2600 ****       255.0000 316.2500 -65.0000 Du        
   2601 ****       255.0000 316.2500 -64.7500 Du        
   2602 ****       255.0000 316.2500 -64.5000 Du        
   2603 ****       255.0000 316.2500 -64.2500 Du        
   2604 ****       255.0000 316.2500 -64.0000 Du        
   2605 ****       255.0000 316.2500 -63.7500 Du        
   2606 ****       255.0000 316.2500 -63.5000 Du        
   2607 ****       255.0000 316.2500 -63.2500 Du        
   2608 ****       255.0000 316.2500 -63.0000 Du        
   2609 ****       255.0000 316.5000 -65.5000 Du        
   2610 ****       255.0000 316.5000 -65.2500 Du        
   2611 ****       255.0000 316.5000 -65.0000 Du        
   2612 ****       255.0000 316.5000 -64.7500 Du        
   2613 ****       255.0000 316.5000 -64.5000 Du        
   2614 ****       255.0000 316.5000 -64.2500 Du        
   2615 ****       255.0000 316.5000 -64.0000 Du        
   2616 ****       255.0000 316.5000 -63.7500 Du        
   2617 ****       255.0000 316.7500 -65.2500 Du        
   2618 ****       255.0000 316.7500 -65.0000 Du        
   2619 ****       255.0000 316.7500 -64.7500 Du        
   2620 ****       255.0000 316.7500 -64.5000 Du        
   2621 ****       255.0000 316.7500 -64.2500 Du        
   2622 ****       255.0000 316.7500 -64.0000 Du        
   2623 ****       255.0000 316.7500 -63.7500 Du        
   2624 ****       255.0000 316.7500 -63.0000 Du        
   2625 ****       255.0000 317.0000 -65.2500 Du        
   2626 ****       255.0000 317.0000 -65.0000 Du        
   2627 ****       255.0000 317.0000 -64.7500 Du        
   2628 ****       255.0000 317.0000 -64.5000 Du        
   2629 ****       255.0000 317.0000 -64.2500 Du        
   2630 ****       255.0000 317.0000 -64.0000 Du        
   2631 ****       255.0000 317.0000 -63.7500 Du        
   2632 ****       255.0000 317.2500 -65.0000 Du        
   2633 ****       255.0000 317.2500 -64.7500 Du        
   2634 ****       255.0000 317.2500 -64.5000 Du        
   2635 ****       255.0000 317.2500 -64.2500 Du        
   2636 ****       255.0000 317.2500 -64.0000 Du        
   2637 ****       255.0000 317.2500 -63.7500 Du        
   2638 ****       255.0000 317.2500 -57.7500 Du        
   2639 ****       255.0000 317.2500 -57.5000 Du        
   2640 ****       255.0000 317.5000 -64.7500 Du        
   2641 ****       255.0000 317.5000 -58.2500 Du        
   2642 ****       255.0000 317.5000 -58.0000 Du        
   2643 ****       255.0000 317.5000 -57.7500 Du        
   2644 ****       255.0000 317.5000 -57.5000 Du        
   2645 ****       255.0000 317.7500 -64.7500 Du        
   2646 ****       255.0000 317.7500 -59.0000 Du        
   2647 ****       255.0000 317.7500 -58.7500 Du        
   2648 ****       255.0000 317.7500 -58.5000 Du        
   2649 ****       255.0000 317.7500 -58.2500 Du        
   2650 ****       255.0000 317.7500 -58.0000 Du        
   2651 ****       255.0000 317.7500 -57.7500 Du        
   2652 ****       255.0000 317.7500 -57.5000 Du        
   2653 ****       255.0000 317.7500 -57.2500 Du        
   2654 ****       255.0000 318.0000 -64.7500 Du        
   2655 ****       255.0000 318.0000 -59.2500 Du        
   2656 ****       255.0000 318.0000 -59.0000 Du        
   2657 ****       255.0000 318.0000 -58.7500 Du        
   2658 ****       255.0000 318.0000 -58.5000 Du        
   2659 ****       255.0000 318.0000 -58.2500 Du        
   2660 ****       255.0000 318.0000 -58.0000 Du        
   2661 ****       255.0000 318.0000 -57.7500 Du        
   2662 ****       255.0000 318.0000 -57.5000 Du        
   2663 ****       255.0000 318.0000 -57.2500 Du        
   2664 ****       255.0000 318.2500 -64.7500 Du        
   2665 ****       255.0000 318.2500 -59.2500 Du        
   2666 ****       255.0000 318.2500 -59.0000 Du        
   2667 ****       255.0000 318.2500 -58.7500 Du        
   2668 ****       255.0000 318.2500 -58.5000 Du        
   2669 ****       255.0000 318.2500 -58.2500 Du        
   2670 ****       255.0000 318.2500 -58.0000 Du        
   2671 ****       255.0000 318.2500 -57.7500 Du        
   2672 ****       255.0000 318.2500 -57.5000 Du        
   2673 ****       255.0000 318.2500 -57.2500 Du        
   2674 ****       255.0000 318.5000 -58.7500 Du        
   2675 ****       255.0000 318.5000 -58.5000 Du        
   2676 ****       255.0000 318.5000 -58.2500 Du        
   2677 ****       255.0000 318.5000 -58.0000 Du        
   2678 ****       255.0000 318.5000 -57.7500 Du        
   2679 ****       255.0000 318.5000 -57.5000 Du        
   2680 ****       255.0000 318.5000 -57.2500 Du        
   2681 ****       255.0000 318.7500 -58.7500 Du        
   2682 ****       255.0000 318.7500 -58.5000 Du        
   2683 ****       255.0000 318.7500 -58.2500 Du        
   2684 ****       255.0000 318.7500 -58.0000 Du        
   2685 ****       255.0000 318.7500 -57.7500 Du        
   2686 ****       255.0000 318.7500 -57.5000 Du        
   2687 ****       255.0000 319.0000 -58.5000 Du        
   2688 ****       255.0000 319.0000 -58.2500 Du        
   2689 ****       255.0000 319.0000 -58.0000 Du        
   2690 ****       255.0000 319.0000 -57.7500 Du        
   2691 ****       255.0000 319.0000 -57.5000 Du        
   2692 ****       255.0000 319.2500 -58.5000 Du        
   2693 ****       255.0000 319.2500 -58.2500 Du        
   2694 ****       255.0000 319.2500 -58.0000 Du        
   2695 ****       255.0000 319.2500 -57.7500 Du        
   2696 ****       255.0000 319.2500 -57.5000 Du        
   2697 ****       255.0000 319.5000 -58.5000 Du        
   2698 ****       255.0000 319.5000 -58.2500 Du        
   2699 ****       255.0000 319.5000 -58.0000 Du        
   2700 ****       255.0000 319.5000 -57.7500 Du        
   2701 ****       255.0000 319.5000 -57.5000 Du        
   2702 ****       255.0000 319.7500 -58.5000 Du        
   2703 ****       255.0000 319.7500 -58.2500 Du        
   2704 ****       255.0000 319.7500 -58.0000 Du        
   2705 ****       255.0000 319.7500 -57.7500 Du        
   2706 ****       255.0000 319.7500 -57.5000 Du        
   2707 ****       255.0000 320.0000 -58.5000 Du        
   2708 ****       255.0000 320.0000 -58.2500 Du        
   2709 ****       255.0000 320.0000 -58.0000 Du        
   2710 ****       255.0000 320.0000 -57.7500 Du        
   2711 ****       255.0000 320.0000 -57.5000 Du        
   2712 ****       255.0000 320.2500 -58.5000 Du        
   2713 ****       255.0000 320.2500 -58.2500 Du        
   2714 ****       255.0000 320.2500 -58.0000 Du        
   2715 ****       255.0000 320.2500 -57.7500 Du        
   2716 ****       255.0000 320.2500 -57.5000 Du        
   2717 ****       255.0000 320.5000 -58.5000 Du        
   2718 ****       255.0000 320.5000 -58.2500 Du        
   2719 ****       255.0000 320.5000 -58.0000 Du        
   2720 ****       255.0000 320.5000 -57.7500 Du        
   2721 ****       255.0000 320.5000 -57.5000 Du        
   2722 ****       255.0000 320.7500 -58.5000 Du        
   2723 ****       255.0000 320.7500 -58.2500 Du        
   2724 ****       255.0000 320.7500 -58.0000 Du        
   2725 ****       255.0000 320.7500 -57.7500 Du        
   2726 ****       255.0000 320.7500 -57.5000 Du        
   2727 ****       255.0000 321.0000 -58.5000 Du        
   2728 ****       255.0000 321.0000 -58.2500 Du        
   2729 ****       255.0000 321.0000 -58.0000 Du        
   2730 ****       255.0000 321.0000 -57.7500 Du        
   2731 ****       255.0000 321.2500 -58.5000 Du        
   2732 ****       255.0000 321.2500 -58.2500 Du        
   2733 ****       255.0000 321.2500 -58.0000 Du        
   2734 ****       255.0000 321.5000 -58.7500 Du        
   2735 ****       255.0000 321.5000 -58.5000 Du        
   2736 ****       255.0000 321.5000 -58.2500 Du        
   2737 ****       255.2500 315.7500 -66.0000 Du        
   2738 ****       255.2500 315.7500 -65.7500 Du        
   2739 ****       255.2500 315.7500 -65.5000 Du        
   2740 ****       255.2500 315.7500 -65.2500 Du        
   2741 ****       255.2500 315.7500 -65.0000 Du        
   2742 ****       255.2500 315.7500 -64.7500 Du        
   2743 ****       255.2500 315.7500 -64.5000 Du        
   2744 ****       255.2500 315.7500 -64.2500 Du        
   2745 ****       255.2500 315.7500 -64.0000 Du        
   2746 ****       255.2500 316.0000 -66.0000 Du        
   2747 ****       255.2500 316.0000 -65.7500 Du        
   2748 ****       255.2500 316.0000 -65.5000 Du        
   2749 ****       255.2500 316.0000 -65.2500 Du        
   2750 ****       255.2500 316.0000 -65.0000 Du        
   2751 ****       255.2500 316.0000 -64.7500 Du        
   2752 ****       255.2500 316.0000 -64.5000 Du        
   2753 ****       255.2500 316.0000 -64.2500 Du        
   2754 ****       255.2500 316.0000 -64.0000 Du        
   2755 ****       255.2500 316.0000 -63.7500 Du        
   2756 ****       255.2500 316.2500 -65.7500 Du        
   2757 ****       255.2500 316.2500 -65.5000 Du        
   2758 ****       255.2500 316.2500 -65.2500 Du        
   2759 ****       255.2500 316.2500 -65.0000 Du        
   2760 ****       255.2500 316.2500 -64.7500 Du        
   2761 ****       255.2500 316.2500 -64.5000 Du        
   2762 ****       255.2500 316.2500 -64.2500 Du        
   2763 ****       255.2500 316.2500 -64.0000 Du        
   2764 ****       255.2500 316.2500 -63.7500 Du        
   2765 ****       255.2500 316.5000 -65.5000 Du        
   2766 ****       255.2500 316.5000 -65.2500 Du        
   2767 ****       255.2500 316.5000 -65.0000 Du        
   2768 ****       255.2500 316.5000 -64.7500 Du        
   2769 ****       255.2500 316.5000 -64.5000 Du        
   2770 ****       255.2500 316.5000 -64.2500 Du        
   2771 ****       255.2500 316.5000 -64.0000 Du        
   2772 ****       255.2500 316.5000 -63.7500 Du        
   2773 ****       255.2500 316.7500 -65.2500 Du        
   2774 ****       255.2500 316.7500 -65.0000 Du        
   2775 ****       255.2500 316.7500 -64.7500 Du        
   2776 ****       255.2500 316.7500 -64.5000 Du        
   2777 ****       255.2500 316.7500 -64.2500 Du        
   2778 ****       255.2500 316.7500 -64.0000 Du        
   2779 ****       255.2500 316.7500 -63.7500 Du        
   2780 ****       255.2500 317.0000 -65.2500 Du        
   2781 ****       255.2500 317.0000 -65.0000 Du        
   2782 ****       255.2500 317.0000 -64.7500 Du        
   2783 ****       255.2500 317.0000 -64.5000 Du        
   2784 ****       255.2500 317.0000 -64.2500 Du        
   2785 ****       255.2500 317.0000 -64.0000 Du        
   2786 ****       255.2500 317.0000 -63.7500 Du        
   2787 ****       255.2500 317.2500 -65.0000 Du        
   2788 ****       255.2500 317.2500 -64.7500 Du        
   2789 ****       255.2500 317.2500 -64.5000 Du        
   2790 ****       255.2500 317.2500 -64.2500 Du        
   2791 ****       255.2500 317.2500 -64.0000 Du        
   2792 ****       255.2500 317.2500 -63.7500 Du        
   2793 ****       255.2500 317.2500 -58.5000 Du        
   2794 ****       255.2500 317.2500 -58.2500 Du        
   2795 ****       255.2500 317.2500 -58.0000 Du        
   2796 ****       255.2500 317.2500 -57.7500 Du        
   2797 ****       255.2500 317.5000 -65.0000 Du        
   2798 ****       255.2500 317.5000 -64.7500 Du        
   2799 ****       255.2500 317.5000 -64.2500 Du        
   2800 ****       255.2500 317.5000 -59.0000 Du        
   2801 ****       255.2500 317.5000 -58.7500 Du        
   2802 ****       255.2500 317.5000 -58.5000 Du        
   2803 ****       255.2500 317.5000 -58.2500 Du        
   2804 ****       255.2500 317.5000 -58.0000 Du        
   2805 ****       255.2500 317.5000 -57.7500 Du        
   2806 ****       255.2500 317.7500 -65.0000 Du        
   2807 ****       255.2500 317.7500 -64.7500 Du        
   2808 ****       255.2500 317.7500 -64.5000 Du        
   2809 ****       255.2500 317.7500 -64.2500 Du        
   2810 ****       255.2500 317.7500 -59.2500 Du        
   2811 ****       255.2500 317.7500 -59.0000 Du        
   2812 ****       255.2500 317.7500 -58.7500 Du        
   2813 ****       255.2500 317.7500 -58.5000 Du        
   2814 ****       255.2500 317.7500 -58.2500 Du        
   2815 ****       255.2500 317.7500 -58.0000 Du        
   2816 ****       255.2500 317.7500 -57.7500 Du        
   2817 ****       255.2500 317.7500 -57.5000 Du        
   2818 ****       255.2500 318.0000 -65.0000 Du        
   2819 ****       255.2500 318.0000 -64.7500 Du        
   2820 ****       255.2500 318.0000 -59.2500 Du        
   2821 ****       255.2500 318.0000 -59.0000 Du        
   2822 ****       255.2500 318.0000 -58.7500 Du        
   2823 ****       255.2500 318.0000 -58.5000 Du        
   2824 ****       255.2500 318.0000 -58.2500 Du        
   2825 ****       255.2500 318.0000 -58.0000 Du        
   2826 ****       255.2500 318.0000 -57.7500 Du        
   2827 ****       255.2500 318.0000 -57.5000 Du        
   2828 ****       255.2500 318.2500 -59.0000 Du        
   2829 ****       255.2500 318.2500 -58.7500 Du        
   2830 ****       255.2500 318.2500 -58.5000 Du        
   2831 ****       255.2500 318.2500 -58.2500 Du        
   2832 ****       255.2500 318.2500 -58.0000 Du        
   2833 ****       255.2500 318.2500 -57.7500 Du        
   2834 ****       255.2500 318.2500 -57.5000 Du        
   2835 ****       255.2500 318.5000 -58.5000 Du        
   2836 ****       255.2500 318.5000 -58.2500 Du        
   2837 ****       255.2500 318.5000 -58.0000 Du        
   2838 ****       255.2500 318.5000 -57.7500 Du        
   2839 ****       255.2500 318.5000 -57.5000 Du        
   2840 ****       255.2500 318.7500 -58.5000 Du        
   2841 ****       255.2500 318.7500 -58.2500 Du        
   2842 ****       255.2500 318.7500 -58.0000 Du        
   2843 ****       255.2500 318.7500 -57.7500 Du        
   2844 ****       255.2500 319.0000 -58.5000 Du        
   2845 ****       255.2500 319.0000 -58.2500 Du        
   2846 ****       255.2500 319.0000 -58.0000 Du        
   2847 ****       255.2500 319.0000 -57.7500 Du        
   2848 ****       255.2500 319.2500 -58.5000 Du        
   2849 ****       255.2500 319.2500 -58.2500 Du        
   2850 ****       255.2500 319.2500 -58.0000 Du        
   2851 ****       255.2500 319.2500 -57.7500 Du        
   2852 ****       255.2500 319.5000 -58.2500 Du        
   2853 ****       255.2500 319.5000 -58.0000 Du        
   2854 ****       255.2500 319.5000 -57.7500 Du        
   2855 ****       255.2500 319.7500 -58.2500 Du        
   2856 ****       255.2500 319.7500 -58.0000 Du        
   2857 ****       255.2500 319.7500 -57.7500 Du        
   2858 ****       255.2500 320.0000 -58.2500 Du        
   2859 ****       255.2500 320.0000 -58.0000 Du        
   2860 ****       255.2500 320.0000 -57.7500 Du        
   2861 ****       255.2500 320.2500 -58.2500 Du        
   2862 ****       255.2500 320.2500 -58.0000 Du        
   2863 ****       255.2500 320.2500 -57.7500 Du        
   2864 ****       255.2500 320.2500 -57.5000 Du        
   2865 ****       255.2500 320.5000 -58.2500 Du        
   2866 ****       255.2500 320.5000 -58.0000 Du        
   2867 ****       255.2500 320.5000 -57.7500 Du        
   2868 ****       255.2500 320.5000 -57.5000 Du        
   2869 ****       255.2500 320.7500 -58.2500 Du        
   2870 ****       255.2500 320.7500 -58.0000 Du        
   2871 ****       255.2500 320.7500 -57.7500 Du        
   2872 ****       255.2500 320.7500 -57.5000 Du        
   2873 ****       255.2500 321.0000 -58.2500 Du        
   2874 ****       255.2500 321.0000 -58.0000 Du        
   2875 ****       255.2500 321.0000 -57.7500 Du        
   2876 ****       255.2500 321.2500 -58.2500 Du        
   2877 ****       255.2500 321.2500 -58.0000 Du        
   2878 ****       255.2500 321.2500 -57.7500 Du        
   2879 ****       255.2500 321.5000 -58.2500 Du        
   2880 ****       255.5000 315.7500 -66.0000 Du        
   2881 ****       255.5000 315.7500 -65.7500 Du        
   2882 ****       255.5000 315.7500 -65.5000 Du        
   2883 ****       255.5000 315.7500 -65.2500 Du        
   2884 ****       255.5000 315.7500 -65.0000 Du        
   2885 ****       255.5000 315.7500 -64.7500 Du        
   2886 ****       255.5000 316.0000 -66.0000 Du        
   2887 ****       255.5000 316.0000 -65.7500 Du        
   2888 ****       255.5000 316.0000 -65.5000 Du        
   2889 ****       255.5000 316.0000 -65.2500 Du        
   2890 ****       255.5000 316.0000 -65.0000 Du        
   2891 ****       255.5000 316.0000 -64.7500 Du        
   2892 ****       255.5000 316.0000 -64.5000 Du        
   2893 ****       255.5000 316.0000 -64.2500 Du        
   2894 ****       255.5000 316.0000 -64.0000 Du        
   2895 ****       255.5000 316.2500 -65.7500 Du        
   2896 ****       255.5000 316.2500 -65.5000 Du        
   2897 ****       255.5000 316.2500 -65.2500 Du        
   2898 ****       255.5000 316.2500 -65.0000 Du        
   2899 ****       255.5000 316.2500 -64.7500 Du        
   2900 ****       255.5000 316.2500 -64.5000 Du        
   2901 ****       255.5000 316.2500 -64.2500 Du        
   2902 ****       255.5000 316.2500 -64.0000 Du        
   2903 ****       255.5000 316.2500 -63.7500 Du        
   2904 ****       255.5000 316.5000 -65.5000 Du        
   2905 ****       255.5000 316.5000 -65.2500 Du        
   2906 ****       255.5000 316.5000 -65.0000 Du        
   2907 ****       255.5000 316.5000 -64.7500 Du        
   2908 ****       255.5000 316.5000 -64.5000 Du        
   2909 ****       255.5000 316.5000 -64.2500 Du        
   2910 ****       255.5000 316.5000 -64.0000 Du        
   2911 ****       255.5000 316.5000 -63.7500 Du        
   2912 ****       255.5000 316.7500 -65.5000 Du        
   2913 ****       255.5000 316.7500 -65.2500 Du        
   2914 ****       255.5000 316.7500 -65.0000 Du        
   2915 ****       255.5000 316.7500 -64.7500 Du        
   2916 ****       255.5000 316.7500 -64.5000 Du        
   2917 ****       255.5000 316.7500 -64.2500 Du        
   2918 ****       255.5000 316.7500 -64.0000 Du        
   2919 ****       255.5000 316.7500 -63.7500 Du        
   2920 ****       255.5000 316.7500 -63.5000 Du        
   2921 ****       255.5000 316.7500 -63.2500 Du        
   2922 ****       255.5000 317.0000 -65.2500 Du        
   2923 ****       255.5000 317.0000 -65.0000 Du        
   2924 ****       255.5000 317.0000 -64.7500 Du        
   2925 ****       255.5000 317.0000 -64.5000 Du        
   2926 ****       255.5000 317.0000 -64.2500 Du        
   2927 ****       255.5000 317.0000 -64.0000 Du        
   2928 ****       255.5000 317.0000 -63.7500 Du        
   2929 ****       255.5000 317.0000 -63.5000 Du        
   2930 ****       255.5000 317.0000 -63.2500 Du        
   2931 ****       255.5000 317.0000 -63.0000 Du        
   2932 ****       255.5000 317.0000 -58.5000 Du        
   2933 ****       255.5000 317.0000 -58.2500 Du        
   2934 ****       255.5000 317.2500 -65.2500 Du        
   2935 ****       255.5000 317.2500 -65.0000 Du        
   2936 ****       255.5000 317.2500 -64.7500 Du        
   2937 ****       255.5000 317.2500 -64.5000 Du        
   2938 ****       255.5000 317.2500 -64.2500 Du        
   2939 ****       255.5000 317.2500 -64.0000 Du        
   2940 ****       255.5000 317.2500 -63.7500 Du        
   2941 ****       255.5000 317.2500 -63.5000 Du        
   2942 ****       255.5000 317.2500 -63.2500 Du        
   2943 ****       255.5000 317.2500 -58.7500 Du        
   2944 ****       255.5000 317.2500 -58.5000 Du        
   2945 ****       255.5000 317.2500 -58.2500 Du        
   2946 ****       255.5000 317.2500 -58.0000 Du        
   2947 ****       255.5000 317.5000 -65.2500 Du        
   2948 ****       255.5000 317.5000 -65.0000 Du        
   2949 ****       255.5000 317.5000 -64.7500 Du        
   2950 ****       255.5000 317.5000 -64.5000 Du        
   2951 ****       255.5000 317.5000 -64.2500 Du        
   2952 ****       255.5000 317.5000 -64.0000 Du        
   2953 ****       255.5000 317.5000 -59.2500 Du        
   2954 ****       255.5000 317.5000 -59.0000 Du        
   2955 ****       255.5000 317.5000 -58.7500 Du        
   2956 ****       255.5000 317.5000 -58.5000 Du        
   2957 ****       255.5000 317.5000 -58.2500 Du        
   2958 ****       255.5000 317.5000 -58.0000 Du        
   2959 ****       255.5000 317.7500 -65.2500 Du        
   2960 ****       255.5000 317.7500 -65.0000 Du        
   2961 ****       255.5000 317.7500 -64.7500 Du        
   2962 ****       255.5000 317.7500 -64.5000 Du        
   2963 ****       255.5000 317.7500 -64.2500 Du        
   2964 ****       255.5000 317.7500 -64.0000 Du        
   2965 ****       255.5000 317.7500 -59.2500 Du        
   2966 ****       255.5000 317.7500 -59.0000 Du        
   2967 ****       255.5000 317.7500 -58.7500 Du        
   2968 ****       255.5000 317.7500 -58.5000 Du        
   2969 ****       255.5000 317.7500 -58.2500 Du        
   2970 ****       255.5000 317.7500 -58.0000 Du        
   2971 ****       255.5000 318.0000 -65.0000 Du        
   2972 ****       255.5000 318.0000 -64.7500 Du        
   2973 ****       255.5000 318.0000 -64.5000 Du        
   2974 ****       255.5000 318.0000 -64.2500 Du        
   2975 ****       255.5000 318.0000 -64.0000 Du        
   2976 ****       255.5000 318.0000 -63.7500 Du        
   2977 ****       255.5000 318.0000 -59.0000 Du        
   2978 ****       255.5000 318.0000 -58.7500 Du        
   2979 ****       255.5000 318.0000 -58.5000 Du        
   2980 ****       255.5000 318.0000 -58.2500 Du        
   2981 ****       255.5000 318.0000 -58.0000 Du        
   2982 ****       255.5000 318.0000 -57.7500 Du        
   2983 ****       255.5000 318.2500 -65.0000 Du        
   2984 ****       255.5000 318.2500 -64.7500 Du        
   2985 ****       255.5000 318.2500 -64.5000 Du        
   2986 ****       255.5000 318.2500 -64.2500 Du        
   2987 ****       255.5000 318.2500 -64.0000 Du        
   2988 ****       255.5000 318.2500 -59.0000 Du        
   2989 ****       255.5000 318.2500 -58.7500 Du        
   2990 ****       255.5000 318.2500 -58.5000 Du        
   2991 ****       255.5000 318.2500 -58.2500 Du        
   2992 ****       255.5000 318.2500 -58.0000 Du        
   2993 ****       255.5000 318.5000 -58.7500 Du        
   2994 ****       255.5000 318.5000 -58.5000 Du        
   2995 ****       255.5000 318.5000 -58.2500 Du        
   2996 ****       255.5000 318.5000 -58.0000 Du        
   2997 ****       255.5000 318.7500 -58.5000 Du        
   2998 ****       255.5000 318.7500 -58.2500 Du        
   2999 ****       255.5000 318.7500 -58.0000 Du        
   3000 ****       255.5000 319.0000 -58.2500 Du        
   3001 ****       255.5000 319.0000 -58.0000 Du        
   3002 ****       255.5000 319.2500 -58.2500 Du        
   3003 ****       255.5000 319.2500 -58.0000 Du        
   3004 ****       255.5000 319.5000 -58.0000 Du        
   3005 ****       255.5000 319.7500 -58.0000 Du        
   3006 ****       255.5000 320.0000 -58.0000 Du        
   3007 ****       255.5000 320.2500 -58.0000 Du        
   3008 ****       255.5000 320.5000 -58.0000 Du        
   3009 ****       255.5000 320.5000 -57.7500 Du        
   3010 ****       255.5000 320.7500 -58.2500 Du        
   3011 ****       255.5000 320.7500 -58.0000 Du        
   3012 ****       255.5000 320.7500 -57.7500 Du        
   3013 ****       255.5000 321.0000 -58.2500 Du        
   3014 ****       255.5000 321.0000 -58.0000 Du        
   3015 ****       255.5000 321.0000 -57.7500 Du        
   3016 ****       255.5000 321.2500 -58.2500 Du        
   3017 ****       255.5000 321.2500 -58.0000 Du        
   3018 ****       255.5000 321.2500 -57.7500 Du        
   3019 ****       255.7500 315.7500 -66.0000 Du        
   3020 ****       255.7500 315.7500 -65.7500 Du        
   3021 ****       255.7500 315.7500 -65.5000 Du        
   3022 ****       255.7500 315.7500 -65.2500 Du        
   3023 ****       255.7500 315.7500 -65.0000 Du        
   3024 ****       255.7500 316.0000 -66.0000 Du        
   3025 ****       255.7500 316.0000 -65.7500 Du        
   3026 ****       255.7500 316.0000 -65.5000 Du        
   3027 ****       255.7500 316.0000 -65.2500 Du        
   3028 ****       255.7500 316.0000 -65.0000 Du        
   3029 ****       255.7500 316.0000 -64.7500 Du        
   3030 ****       255.7500 316.0000 -64.5000 Du        
   3031 ****       255.7500 316.0000 -64.2500 Du        
   3032 ****       255.7500 316.2500 -65.7500 Du        
   3033 ****       255.7500 316.2500 -65.5000 Du        
   3034 ****       255.7500 316.2500 -65.2500 Du        
   3035 ****       255.7500 316.2500 -65.0000 Du        
   3036 ****       255.7500 316.2500 -64.7500 Du        
   3037 ****       255.7500 316.2500 -64.5000 Du        
   3038 ****       255.7500 316.2500 -64.2500 Du        
   3039 ****       255.7500 316.2500 -64.0000 Du        
   3040 ****       255.7500 316.2500 -63.7500 Du        
   3041 ****       255.7500 316.5000 -65.5000 Du        
   3042 ****       255.7500 316.5000 -65.2500 Du        
   3043 ****       255.7500 316.5000 -65.0000 Du        
   3044 ****       255.7500 316.5000 -64.7500 Du        
   3045 ****       255.7500 316.5000 -64.5000 Du        
   3046 ****       255.7500 316.5000 -64.2500 Du        
   3047 ****       255.7500 316.5000 -64.0000 Du        
   3048 ****       255.7500 316.5000 -63.7500 Du        
   3049 ****       255.7500 316.7500 -65.5000 Du        
   3050 ****       255.7500 316.7500 -65.2500 Du        
   3051 ****       255.7500 316.7500 -65.0000 Du        
   3052 ****       255.7500 316.7500 -64.7500 Du        
   3053 ****       255.7500 316.7500 -64.5000 Du        
   3054 ****       255.7500 316.7500 -64.2500 Du        
   3055 ****       255.7500 316.7500 -64.0000 Du        
   3056 ****       255.7500 316.7500 -63.7500 Du        
   3057 ****       255.7500 316.7500 -63.5000 Du        
   3058 ****       255.7500 316.7500 -63.2500 Du        
   3059 ****       255.7500 316.7500 -58.5000 Du        
   3060 ****       255.7500 316.7500 -58.2500 Du        
   3061 ****       255.7500 317.0000 -65.2500 Du        
   3062 ****       255.7500 317.0000 -65.0000 Du        
   3063 ****       255.7500 317.0000 -64.7500 Du        
   3064 ****       255.7500 317.0000 -64.5000 Du        
   3065 ****       255.7500 317.0000 -64.2500 Du        
   3066 ****       255.7500 317.0000 -64.0000 Du        
   3067 ****       255.7500 317.0000 -63.7500 Du        
   3068 ****       255.7500 317.0000 -63.5000 Du        
   3069 ****       255.7500 317.0000 -63.2500 Du        
   3070 ****       255.7500 317.0000 -63.0000 Du        
   3071 ****       255.7500 317.0000 -59.0000 Du        
   3072 ****       255.7500 317.0000 -58.7500 Du        
   3073 ****       255.7500 317.0000 -58.5000 Du        
   3074 ****       255.7500 317.0000 -58.2500 Du        
   3075 ****       255.7500 317.0000 -58.0000 Du        
   3076 ****       255.7500 317.2500 -65.2500 Du        
   3077 ****       255.7500 317.2500 -65.0000 Du        
   3078 ****       255.7500 317.2500 -64.7500 Du        
   3079 ****       255.7500 317.2500 -64.5000 Du        
   3080 ****       255.7500 317.2500 -64.2500 Du        
   3081 ****       255.7500 317.2500 -64.0000 Du        
   3082 ****       255.7500 317.2500 -63.7500 Du        
   3083 ****       255.7500 317.2500 -63.5000 Du        
   3084 ****       255.7500 317.2500 -63.2500 Du        
   3085 ****       255.7500 317.2500 -63.0000 Du        
   3086 ****       255.7500 317.2500 -59.2500 Du        
   3087 ****       255.7500 317.2500 -59.0000 Du        
   3088 ****       255.7500 317.2500 -58.7500 Du        
   3089 ****       255.7500 317.2500 -58.5000 Du        
   3090 ****       255.7500 317.2500 -58.2500 Du        
   3091 ****       255.7500 317.2500 -58.0000 Du        
   3092 ****       255.7500 317.5000 -65.2500 Du        
   3093 ****       255.7500 317.5000 -65.0000 Du        
   3094 ****       255.7500 317.5000 -64.7500 Du        
   3095 ****       255.7500 317.5000 -64.5000 Du        
   3096 ****       255.7500 317.5000 -64.2500 Du        
   3097 ****       255.7500 317.5000 -64.0000 Du        
   3098 ****       255.7500 317.5000 -63.7500 Du        
   3099 ****       255.7500 317.5000 -63.5000 Du        
   3100 ****       255.7500 317.5000 -63.2500 Du        
   3101 ****       255.7500 317.5000 -59.2500 Du        
   3102 ****       255.7500 317.5000 -59.0000 Du        
   3103 ****       255.7500 317.5000 -58.7500 Du        
   3104 ****       255.7500 317.5000 -58.5000 Du        
   3105 ****       255.7500 317.5000 -58.2500 Du        
   3106 ****       255.7500 317.5000 -58.0000 Du        
   3107 ****       255.7500 317.7500 -65.2500 Du        
   3108 ****       255.7500 317.7500 -65.0000 Du        
   3109 ****       255.7500 317.7500 -64.7500 Du        
   3110 ****       255.7500 317.7500 -64.5000 Du        
   3111 ****       255.7500 317.7500 -64.2500 Du        
   3112 ****       255.7500 317.7500 -64.0000 Du        
   3113 ****       255.7500 317.7500 -63.7500 Du        
   3114 ****       255.7500 317.7500 -63.5000 Du        
   3115 ****       255.7500 317.7500 -63.2500 Du        
   3116 ****       255.7500 317.7500 -63.0000 Du        
   3117 ****       255.7500 317.7500 -59.2500 Du        
   3118 ****       255.7500 317.7500 -59.0000 Du        
   3119 ****       255.7500 317.7500 -58.7500 Du        
   3120 ****       255.7500 317.7500 -58.5000 Du        
   3121 ****       255.7500 317.7500 -58.2500 Du        
   3122 ****       255.7500 317.7500 -58.0000 Du        
   3123 ****       255.7500 318.0000 -65.2500 Du        
   3124 ****       255.7500 318.0000 -65.0000 Du        
   3125 ****       255.7500 318.0000 -64.7500 Du        
   3126 ****       255.7500 318.0000 -64.5000 Du        
   3127 ****       255.7500 318.0000 -64.2500 Du        
   3128 ****       255.7500 318.0000 -64.0000 Du        
   3129 ****       255.7500 318.0000 -63.7500 Du        
   3130 ****       255.7500 318.0000 -63.5000 Du        
   3131 ****       255.7500 318.0000 -63.2500 Du        
   3132 ****       255.7500 318.0000 -63.0000 Du        
   3133 ****       255.7500 318.0000 -59.0000 Du        
   3134 ****       255.7500 318.0000 -58.7500 Du        
   3135 ****       255.7500 318.0000 -58.5000 Du        
   3136 ****       255.7500 318.0000 -58.2500 Du        
   3137 ****       255.7500 318.2500 -65.0000 Du        
   3138 ****       255.7500 318.2500 -64.7500 Du        
   3139 ****       255.7500 318.2500 -64.5000 Du        
   3140 ****       255.7500 318.2500 -64.2500 Du        
   3141 ****       255.7500 318.2500 -64.0000 Du        
   3142 ****       255.7500 318.2500 -63.7500 Du        
   3143 ****       255.7500 318.2500 -63.5000 Du        
   3144 ****       255.7500 318.2500 -63.2500 Du        
   3145 ****       255.7500 318.2500 -58.7500 Du        
   3146 ****       255.7500 318.2500 -58.5000 Du        
   3147 ****       255.7500 318.2500 -58.2500 Du        
   3148 ****       255.7500 318.5000 -58.2500 Du        
   3149 ****       256.0000 315.7500 -65.7500 Du        
   3150 ****       256.0000 316.0000 -66.0000 Du        
   3151 ****       256.0000 316.0000 -65.7500 Du        
   3152 ****       256.0000 316.0000 -65.5000 Du        
   3153 ****       256.0000 316.0000 -65.2500 Du        
   3154 ****       256.0000 316.0000 -65.0000 Du        
   3155 ****       256.0000 316.0000 -64.7500 Du        
   3156 ****       256.0000 316.0000 -64.5000 Du        
   3157 ****       256.0000 316.0000 -58.2500 Du        
   3158 ****       256.0000 316.2500 -66.0000 Du        
   3159 ****       256.0000 316.2500 -65.7500 Du        
   3160 ****       256.0000 316.2500 -65.5000 Du        
   3161 ****       256.0000 316.2500 -65.2500 Du        
   3162 ****       256.0000 316.2500 -65.0000 Du        
   3163 ****       256.0000 316.2500 -64.7500 Du        
   3164 ****       256.0000 316.2500 -64.5000 Du        
   3165 ****       256.0000 316.2500 -64.2500 Du        
   3166 ****       256.0000 316.2500 -64.0000 Du        
   3167 ****       256.0000 316.2500 -58.7500 Du        
   3168 ****       256.0000 316.2500 -58.5000 Du        
   3169 ****       256.0000 316.2500 -58.2500 Du        
   3170 ****       256.0000 316.5000 -65.7500 Du        
   3171 ****       256.0000 316.5000 -65.5000 Du        
   3172 ****       256.0000 316.5000 -65.2500 Du        
   3173 ****       256.0000 316.5000 -65.0000 Du        
   3174 ****       256.0000 316.5000 -64.7500 Du        
   3175 ****       256.0000 316.5000 -64.5000 Du        
   3176 ****       256.0000 316.5000 -64.2500 Du        
   3177 ****       256.0000 316.5000 -64.0000 Du        
   3178 ****       256.0000 316.5000 -63.7500 Du        
   3179 ****       256.0000 316.5000 -58.7500 Du        
   3180 ****       256.0000 316.5000 -58.5000 Du        
   3181 ****       256.0000 316.5000 -58.2500 Du        
   3182 ****       256.0000 316.7500 -65.5000 Du        
   3183 ****       256.0000 316.7500 -65.2500 Du        
   3184 ****       256.0000 316.7500 -65.0000 Du        
   3185 ****       256.0000 316.7500 -64.7500 Du        
   3186 ****       256.0000 316.7500 -64.5000 Du        
   3187 ****       256.0000 316.7500 -64.2500 Du        
   3188 ****       256.0000 316.7500 -64.0000 Du        
   3189 ****       256.0000 316.7500 -63.7500 Du        
   3190 ****       256.0000 316.7500 -63.5000 Du        
   3191 ****       256.0000 316.7500 -59.5000 Du        
   3192 ****       256.0000 316.7500 -59.2500 Du        
   3193 ****       256.0000 316.7500 -59.0000 Du        
   3194 ****       256.0000 316.7500 -58.7500 Du        
   3195 ****       256.0000 316.7500 -58.5000 Du        
   3196 ****       256.0000 316.7500 -58.2500 Du        
   3197 ****       256.0000 317.0000 -65.5000 Du        
   3198 ****       256.0000 317.0000 -65.2500 Du        
   3199 ****       256.0000 317.0000 -65.0000 Du        
   3200 ****       256.0000 317.0000 -64.7500 Du        
   3201 ****       256.0000 317.0000 -64.5000 Du        
   3202 ****       256.0000 317.0000 -64.2500 Du        
   3203 ****       256.0000 317.0000 -64.0000 Du        
   3204 ****       256.0000 317.0000 -63.7500 Du        
   3205 ****       256.0000 317.0000 -63.5000 Du        
   3206 ****       256.0000 317.0000 -63.2500 Du        
   3207 ****       256.0000 317.0000 -63.0000 Du        
   3208 ****       256.0000 317.0000 -62.7500 Du        
   3209 ****       256.0000 317.0000 -60.0000 Du        
   3210 ****       256.0000 317.0000 -59.7500 Du        
   3211 ****       256.0000 317.0000 -59.5000 Du        
   3212 ****       256.0000 317.0000 -59.2500 Du        
   3213 ****       256.0000 317.0000 -59.0000 Du        
   3214 ****       256.0000 317.0000 -58.7500 Du        
   3215 ****       256.0000 317.0000 -58.5000 Du        
   3216 ****       256.0000 317.0000 -58.2500 Du        
   3217 ****       256.0000 317.2500 -65.2500 Du        
   3218 ****       256.0000 317.2500 -65.0000 Du        
   3219 ****       256.0000 317.2500 -64.7500 Du        
   3220 ****       256.0000 317.2500 -64.5000 Du        
   3221 ****       256.0000 317.2500 -64.2500 Du        
   3222 ****       256.0000 317.2500 -64.0000 Du        
   3223 ****       256.0000 317.2500 -63.7500 Du        
   3224 ****       256.0000 317.2500 -63.5000 Du        
   3225 ****       256.0000 317.2500 -63.2500 Du        
   3226 ****       256.0000 317.2500 -63.0000 Du        
   3227 ****       256.0000 317.2500 -62.7500 Du        
   3228 ****       256.0000 317.2500 -59.5000 Du        
   3229 ****       256.0000 317.2500 -59.2500 Du        
   3230 ****       256.0000 317.2500 -59.0000 Du        
   3231 ****       256.0000 317.2500 -58.7500 Du        
   3232 ****       256.0000 317.2500 -58.5000 Du        
   3233 ****       256.0000 317.2500 -58.2500 Du        
   3234 ****       256.0000 317.5000 -65.2500 Du        
   3235 ****       256.0000 317.5000 -65.0000 Du        
   3236 ****       256.0000 317.5000 -64.7500 Du        
   3237 ****       256.0000 317.5000 -64.5000 Du        
   3238 ****       256.0000 317.5000 -64.2500 Du        
   3239 ****       256.0000 317.5000 -64.0000 Du        
   3240 ****       256.0000 317.5000 -63.7500 Du        
   3241 ****       256.0000 317.5000 -63.5000 Du        
   3242 ****       256.0000 317.5000 -63.2500 Du        
   3243 ****       256.0000 317.5000 -63.0000 Du        
   3244 ****       256.0000 317.5000 -62.7500 Du        
   3245 ****       256.0000 317.5000 -59.5000 Du        
   3246 ****       256.0000 317.5000 -59.2500 Du        
   3247 ****       256.0000 317.5000 -59.0000 Du        
   3248 ****       256.0000 317.5000 -58.7500 Du        
   3249 ****       256.0000 317.5000 -58.5000 Du        
   3250 ****       256.0000 317.5000 -58.2500 Du        
   3251 ****       256.0000 317.7500 -65.2500 Du        
   3252 ****       256.0000 317.7500 -65.0000 Du        
   3253 ****       256.0000 317.7500 -64.7500 Du        
   3254 ****       256.0000 317.7500 -64.5000 Du        
   3255 ****       256.0000 317.7500 -64.2500 Du        
   3256 ****       256.0000 317.7500 -64.0000 Du        
   3257 ****       256.0000 317.7500 -63.7500 Du        
   3258 ****       256.0000 317.7500 -63.5000 Du        
   3259 ****       256.0000 317.7500 -63.2500 Du        
   3260 ****       256.0000 317.7500 -63.0000 Du        
   3261 ****       256.0000 317.7500 -62.7500 Du        
   3262 ****       256.0000 317.7500 -62.5000 Du        
   3263 ****       256.0000 317.7500 -59.2500 Du        
   3264 ****       256.0000 317.7500 -59.0000 Du        
   3265 ****       256.0000 317.7500 -58.7500 Du        
   3266 ****       256.0000 317.7500 -58.5000 Du        
   3267 ****       256.0000 318.0000 -65.2500 Du        
   3268 ****       256.0000 318.0000 -65.0000 Du        
   3269 ****       256.0000 318.0000 -64.7500 Du        
   3270 ****       256.0000 318.0000 -64.5000 Du        
   3271 ****       256.0000 318.0000 -64.2500 Du        
   3272 ****       256.0000 318.0000 -64.0000 Du        
   3273 ****       256.0000 318.0000 -63.7500 Du        
   3274 ****       256.0000 318.0000 -63.5000 Du        
   3275 ****       256.0000 318.0000 -63.2500 Du        
   3276 ****       256.0000 318.0000 -63.0000 Du        
   3277 ****       256.0000 318.0000 -59.0000 Du        
   3278 ****       256.0000 318.0000 -58.7500 Du        
   3279 ****       256.0000 318.0000 -58.5000 Du        
   3280 ****       256.0000 318.2500 -65.0000 Du        
   3281 ****       256.0000 318.2500 -64.7500 Du        
   3282 ****       256.0000 318.2500 -64.5000 Du        
   3283 ****       256.0000 318.2500 -64.2500 Du        
   3284 ****       256.0000 318.2500 -64.0000 Du        
   3285 ****       256.0000 318.2500 -63.7500 Du        
   3286 ****       256.0000 318.2500 -63.5000 Du        
   3287 ****       256.0000 318.2500 -63.2500 Du        
   3288 ****       256.0000 318.5000 -64.2500 Du        
   3289 ****       256.0000 318.5000 -64.0000 Du        
   3290 ****       256.0000 318.5000 -63.7500 Du        
   3291 ****       256.2500 315.2500 -58.5000 Du        
   3292 ****       256.2500 315.2500 -58.2500 Du        
   3293 ****       256.2500 315.2500 -58.0000 Du        
   3294 ****       256.2500 315.5000 -58.7500 Du        
   3295 ****       256.2500 315.5000 -58.5000 Du        
   3296 ****       256.2500 315.5000 -58.2500 Du        
   3297 ****       256.2500 315.5000 -58.0000 Du        
   3298 ****       256.2500 315.7500 -59.2500 Du        
   3299 ****       256.2500 315.7500 -59.0000 Du        
   3300 ****       256.2500 315.7500 -58.7500 Du        
   3301 ****       256.2500 315.7500 -58.5000 Du        
   3302 ****       256.2500 315.7500 -58.2500 Du        
   3303 ****       256.2500 315.7500 -58.0000 Du        
   3304 ****       256.2500 316.0000 -66.0000 Du        
   3305 ****       256.2500 316.0000 -65.7500 Du        
   3306 ****       256.2500 316.0000 -65.5000 Du        
   3307 ****       256.2500 316.0000 -65.2500 Du        
   3308 ****       256.2500 316.0000 -65.0000 Du        
   3309 ****       256.2500 316.0000 -59.5000 Du        
   3310 ****       256.2500 316.0000 -59.2500 Du        
   3311 ****       256.2500 316.0000 -59.0000 Du        
   3312 ****       256.2500 316.0000 -58.7500 Du        
   3313 ****       256.2500 316.0000 -58.5000 Du        
   3314 ****       256.2500 316.0000 -58.2500 Du        
   3315 ****       256.2500 316.0000 -58.0000 Du        
   3316 ****       256.2500 316.2500 -66.0000 Du        
   3317 ****       256.2500 316.2500 -65.7500 Du        
   3318 ****       256.2500 316.2500 -65.5000 Du        
   3319 ****       256.2500 316.2500 -65.2500 Du        
   3320 ****       256.2500 316.2500 -65.0000 Du        
   3321 ****       256.2500 316.2500 -64.7500 Du        
   3322 ****       256.2500 316.2500 -64.5000 Du        
   3323 ****       256.2500 316.2500 -64.2500 Du        
   3324 ****       256.2500 316.2500 -60.0000 Du        
   3325 ****       256.2500 316.2500 -59.7500 Du        
   3326 ****       256.2500 316.2500 -59.5000 Du        
   3327 ****       256.2500 316.2500 -59.2500 Du        
   3328 ****       256.2500 316.2500 -59.0000 Du        
   3329 ****       256.2500 316.2500 -58.7500 Du        
   3330 ****       256.2500 316.2500 -58.5000 Du        
   3331 ****       256.2500 316.2500 -58.2500 Du        
   3332 ****       256.2500 316.2500 -58.0000 Du        
   3333 ****       256.2500 316.5000 -65.7500 Du        
   3334 ****       256.2500 316.5000 -65.5000 Du        
   3335 ****       256.2500 316.5000 -65.2500 Du        
   3336 ****       256.2500 316.5000 -65.0000 Du        
   3337 ****       256.2500 316.5000 -64.7500 Du        
   3338 ****       256.2500 316.5000 -64.5000 Du        
   3339 ****       256.2500 316.5000 -64.2500 Du        
   3340 ****       256.2500 316.5000 -64.0000 Du        
   3341 ****       256.2500 316.5000 -59.7500 Du        
   3342 ****       256.2500 316.5000 -59.5000 Du        
   3343 ****       256.2500 316.5000 -59.2500 Du        
   3344 ****       256.2500 316.5000 -59.0000 Du        
   3345 ****       256.2500 316.5000 -58.7500 Du        
   3346 ****       256.2500 316.5000 -58.5000 Du        
   3347 ****       256.2500 316.5000 -58.2500 Du        
   3348 ****       256.2500 316.7500 -65.5000 Du        
   3349 ****       256.2500 316.7500 -65.2500 Du        
   3350 ****       256.2500 316.7500 -65.0000 Du        
   3351 ****       256.2500 316.7500 -64.7500 Du        
   3352 ****       256.2500 316.7500 -64.5000 Du        
   3353 ****       256.2500 316.7500 -64.2500 Du        
   3354 ****       256.2500 316.7500 -64.0000 Du        
   3355 ****       256.2500 316.7500 -63.7500 Du        
   3356 ****       256.2500 316.7500 -63.5000 Du        
   3357 ****       256.2500 316.7500 -60.0000 Du        
   3358 ****       256.2500 316.7500 -59.7500 Du        
   3359 ****       256.2500 316.7500 -59.5000 Du        
   3360 ****       256.2500 316.7500 -59.2500 Du        
   3361 ****       256.2500 316.7500 -59.0000 Du        
   3362 ****       256.2500 316.7500 -58.7500 Du        
   3363 ****       256.2500 316.7500 -58.5000 Du        
   3364 ****       256.2500 316.7500 -58.2500 Du        
   3365 ****       256.2500 317.0000 -65.5000 Du        
   3366 ****       256.2500 317.0000 -65.2500 Du        
   3367 ****       256.2500 317.0000 -65.0000 Du        
   3368 ****       256.2500 317.0000 -64.7500 Du        
   3369 ****       256.2500 317.0000 -64.5000 Du        
   3370 ****       256.2500 317.0000 -64.2500 Du        
   3371 ****       256.2500 317.0000 -64.0000 Du        
   3372 ****       256.2500 317.0000 -63.7500 Du        
   3373 ****       256.2500 317.0000 -63.5000 Du        
   3374 ****       256.2500 317.0000 -63.2500 Du        
   3375 ****       256.2500 317.0000 -63.0000 Du        
   3376 ****       256.2500 317.0000 -62.7500 Du        
   3377 ****       256.2500 317.0000 -60.0000 Du        
   3378 ****       256.2500 317.0000 -59.7500 Du        
   3379 ****       256.2500 317.0000 -59.5000 Du        
   3380 ****       256.2500 317.0000 -59.2500 Du        
   3381 ****       256.2500 317.0000 -59.0000 Du        
   3382 ****       256.2500 317.0000 -58.7500 Du        
   3383 ****       256.2500 317.0000 -58.5000 Du        
   3384 ****       256.2500 317.0000 -58.2500 Du        
   3385 ****       256.2500 317.2500 -65.5000 Du        
   3386 ****       256.2500 317.2500 -65.2500 Du        
   3387 ****       256.2500 317.2500 -65.0000 Du        
   3388 ****       256.2500 317.2500 -64.7500 Du        
   3389 ****       256.2500 317.2500 -64.5000 Du        
   3390 ****       256.2500 317.2500 -64.2500 Du        
   3391 ****       256.2500 317.2500 -64.0000 Du        
   3392 ****       256.2500 317.2500 -63.7500 Du        
   3393 ****       256.2500 317.2500 -63.5000 Du        
   3394 ****       256.2500 317.2500 -63.2500 Du        
   3395 ****       256.2500 317.2500 -63.0000 Du        
   3396 ****       256.2500 317.2500 -62.7500 Du        
   3397 ****       256.2500 317.2500 -59.7500 Du        
   3398 ****       256.2500 317.2500 -59.5000 Du        
   3399 ****       256.2500 317.2500 -59.2500 Du        
   3400 ****       256.2500 317.2500 -59.0000 Du        
   3401 ****       256.2500 317.2500 -58.7500 Du        
   3402 ****       256.2500 317.2500 -58.5000 Du        
   3403 ****       256.2500 317.5000 -65.2500 Du        
   3404 ****       256.2500 317.5000 -65.0000 Du        
   3405 ****       256.2500 317.5000 -64.7500 Du        
   3406 ****       256.2500 317.5000 -64.5000 Du        
   3407 ****       256.2500 317.5000 -64.2500 Du        
   3408 ****       256.2500 317.5000 -64.0000 Du        
   3409 ****       256.2500 317.5000 -63.7500 Du        
   3410 ****       256.2500 317.5000 -63.5000 Du        
   3411 ****       256.2500 317.5000 -63.2500 Du        
   3412 ****       256.2500 317.5000 -63.0000 Du        
   3413 ****       256.2500 317.5000 -62.7500 Du        
   3414 ****       256.2500 317.5000 -62.5000 Du        
   3415 ****       256.2500 317.5000 -62.2500 Du        
   3416 ****       256.2500 317.5000 -59.5000 Du        
   3417 ****       256.2500 317.5000 -59.2500 Du        
   3418 ****       256.2500 317.5000 -59.0000 Du        
   3419 ****       256.2500 317.5000 -58.7500 Du        
   3420 ****       256.2500 317.7500 -65.2500 Du        
   3421 ****       256.2500 317.7500 -65.0000 Du        
   3422 ****       256.2500 317.7500 -64.7500 Du        
   3423 ****       256.2500 317.7500 -64.5000 Du        
   3424 ****       256.2500 317.7500 -64.2500 Du        
   3425 ****       256.2500 317.7500 -64.0000 Du        
   3426 ****       256.2500 317.7500 -63.7500 Du        
   3427 ****       256.2500 317.7500 -63.5000 Du        
   3428 ****       256.2500 317.7500 -63.2500 Du        
   3429 ****       256.2500 317.7500 -63.0000 Du        
   3430 ****       256.2500 317.7500 -62.7500 Du        
   3431 ****       256.2500 317.7500 -62.5000 Du        
   3432 ****       256.2500 317.7500 -59.0000 Du        
   3433 ****       256.2500 317.7500 -58.7500 Du        
   3434 ****       256.2500 318.0000 -65.0000 Du        
   3435 ****       256.2500 318.0000 -64.7500 Du        
   3436 ****       256.2500 318.0000 -64.5000 Du        
   3437 ****       256.2500 318.0000 -64.2500 Du        
   3438 ****       256.2500 318.0000 -64.0000 Du        
   3439 ****       256.2500 318.0000 -63.7500 Du        
   3440 ****       256.2500 318.0000 -63.5000 Du        
   3441 ****       256.2500 318.0000 -63.2500 Du        
   3442 ****       256.2500 318.0000 -63.0000 Du        
   3443 ****       256.2500 318.0000 -62.7500 Du        
   3444 ****       256.2500 318.2500 -64.7500 Du        
   3445 ****       256.2500 318.2500 -64.5000 Du        
   3446 ****       256.2500 318.2500 -64.2500 Du        
   3447 ****       256.2500 318.2500 -64.0000 Du        
   3448 ****       256.2500 318.2500 -63.7500 Du        
   3449 ****       256.2500 318.2500 -63.5000 Du        
   3450 ****       256.2500 318.2500 -63.2500 Du        
   3451 ****       256.2500 318.2500 -63.0000 Du        
   3452 ****       256.2500 318.5000 -64.2500 Du        
   3453 ****       256.2500 318.5000 -64.0000 Du        
   3454 ****       256.2500 318.5000 -63.7500 Du        
   3455 ****       256.5000 315.0000 -59.2500 Du        
   3456 ****       256.5000 315.0000 -59.0000 Du        
   3457 ****       256.5000 315.0000 -58.7500 Du        
   3458 ****       256.5000 315.0000 -58.5000 Du        
   3459 ****       256.5000 315.0000 -58.2500 Du        
   3460 ****       256.5000 315.2500 -59.5000 Du        
   3461 ****       256.5000 315.2500 -59.2500 Du        
   3462 ****       256.5000 315.2500 -59.0000 Du        
   3463 ****       256.5000 315.2500 -58.7500 Du        
   3464 ****       256.5000 315.2500 -58.5000 Du        
   3465 ****       256.5000 315.2500 -58.2500 Du        
   3466 ****       256.5000 315.2500 -58.0000 Du        
   3467 ****       256.5000 315.5000 -59.5000 Du        
   3468 ****       256.5000 315.5000 -59.2500 Du        
   3469 ****       256.5000 315.5000 -59.0000 Du        
   3470 ****       256.5000 315.5000 -58.7500 Du        
   3471 ****       256.5000 315.5000 -58.5000 Du        
   3472 ****       256.5000 315.5000 -58.2500 Du        
   3473 ****       256.5000 315.5000 -58.0000 Du        
   3474 ****       256.5000 315.7500 -59.7500 Du        
   3475 ****       256.5000 315.7500 -59.5000 Du        
   3476 ****       256.5000 315.7500 -59.2500 Du        
   3477 ****       256.5000 315.7500 -59.0000 Du        
   3478 ****       256.5000 315.7500 -58.7500 Du        
   3479 ****       256.5000 315.7500 -58.5000 Du        
   3480 ****       256.5000 315.7500 -58.2500 Du        
   3481 ****       256.5000 315.7500 -58.0000 Du        
   3482 ****       256.5000 316.0000 -65.7500 Du        
   3483 ****       256.5000 316.0000 -60.0000 Du        
   3484 ****       256.5000 316.0000 -59.7500 Du        
   3485 ****       256.5000 316.0000 -59.5000 Du        
   3486 ****       256.5000 316.0000 -59.2500 Du        
   3487 ****       256.5000 316.0000 -59.0000 Du        
   3488 ****       256.5000 316.0000 -58.7500 Du        
   3489 ****       256.5000 316.0000 -58.5000 Du        
   3490 ****       256.5000 316.0000 -58.2500 Du        
   3491 ****       256.5000 316.0000 -58.0000 Du        
   3492 ****       256.5000 316.2500 -65.7500 Du        
   3493 ****       256.5000 316.2500 -65.5000 Du        
   3494 ****       256.5000 316.2500 -65.2500 Du        
   3495 ****       256.5000 316.2500 -65.0000 Du        
   3496 ****       256.5000 316.2500 -64.7500 Du        
   3497 ****       256.5000 316.2500 -64.5000 Du        
   3498 ****       256.5000 316.2500 -60.2500 Du        
   3499 ****       256.5000 316.2500 -60.0000 Du        
   3500 ****       256.5000 316.2500 -59.7500 Du        
   3501 ****       256.5000 316.2500 -59.5000 Du        
   3502 ****       256.5000 316.2500 -59.2500 Du        
   3503 ****       256.5000 316.2500 -59.0000 Du        
   3504 ****       256.5000 316.2500 -58.7500 Du        
   3505 ****       256.5000 316.2500 -58.5000 Du        
   3506 ****       256.5000 316.2500 -58.2500 Du        
   3507 ****       256.5000 316.5000 -65.7500 Du        
   3508 ****       256.5000 316.5000 -65.5000 Du        
   3509 ****       256.5000 316.5000 -65.2500 Du        
   3510 ****       256.5000 316.5000 -65.0000 Du        
   3511 ****       256.5000 316.5000 -64.7500 Du        
   3512 ****       256.5000 316.5000 -64.5000 Du        
   3513 ****       256.5000 316.5000 -64.2500 Du        
   3514 ****       256.5000 316.5000 -64.0000 Du        
   3515 ****       256.5000 316.5000 -60.2500 Du        
   3516 ****       256.5000 316.5000 -60.0000 Du        
   3517 ****       256.5000 316.5000 -59.7500 Du        
   3518 ****       256.5000 316.5000 -59.5000 Du        
   3519 ****       256.5000 316.5000 -59.2500 Du        
   3520 ****       256.5000 316.5000 -59.0000 Du        
   3521 ****       256.5000 316.5000 -58.7500 Du        
   3522 ****       256.5000 316.5000 -58.5000 Du        
   3523 ****       256.5000 316.5000 -58.2500 Du        
   3524 ****       256.5000 316.7500 -65.7500 Du        
   3525 ****       256.5000 316.7500 -65.5000 Du        
   3526 ****       256.5000 316.7500 -65.2500 Du        
   3527 ****       256.5000 316.7500 -65.0000 Du        
   3528 ****       256.5000 316.7500 -64.7500 Du        
   3529 ****       256.5000 316.7500 -64.5000 Du        
   3530 ****       256.5000 316.7500 -64.2500 Du        
   3531 ****       256.5000 316.7500 -64.0000 Du        
   3532 ****       256.5000 316.7500 -63.7500 Du        
   3533 ****       256.5000 316.7500 -63.5000 Du        
   3534 ****       256.5000 316.7500 -60.7500 Du        
   3535 ****       256.5000 316.7500 -60.5000 Du        
   3536 ****       256.5000 316.7500 -60.2500 Du        
   3537 ****       256.5000 316.7500 -60.0000 Du        
   3538 ****       256.5000 316.7500 -59.7500 Du        
   3539 ****       256.5000 316.7500 -59.5000 Du        
   3540 ****       256.5000 316.7500 -59.2500 Du        
   3541 ****       256.5000 316.7500 -59.0000 Du        
   3542 ****       256.5000 316.7500 -58.7500 Du        
   3543 ****       256.5000 316.7500 -58.5000 Du        
   3544 ****       256.5000 316.7500 -58.2500 Du        
   3545 ****       256.5000 317.0000 -65.5000 Du        
   3546 ****       256.5000 317.0000 -65.2500 Du        
   3547 ****       256.5000 317.0000 -65.0000 Du        
   3548 ****       256.5000 317.0000 -64.7500 Du        
   3549 ****       256.5000 317.0000 -64.5000 Du        
   3550 ****       256.5000 317.0000 -64.2500 Du        
   3551 ****       256.5000 317.0000 -64.0000 Du        
   3552 ****       256.5000 317.0000 -63.7500 Du        
   3553 ****       256.5000 317.0000 -63.5000 Du        
   3554 ****       256.5000 317.0000 -63.2500 Du        
   3555 ****       256.5000 317.0000 -63.0000 Du        
   3556 ****       256.5000 317.0000 -62.7500 Du        
   3557 ****       256.5000 317.0000 -62.2500 Du        
   3558 ****       256.5000 317.0000 -61.2500 Du        
   3559 ****       256.5000 317.0000 -61.0000 Du        
   3560 ****       256.5000 317.0000 -60.7500 Du        
   3561 ****       256.5000 317.0000 -60.5000 Du        
   3562 ****       256.5000 317.0000 -60.2500 Du        
   3563 ****       256.5000 317.0000 -60.0000 Du        
   3564 ****       256.5000 317.0000 -59.7500 Du        
   3565 ****       256.5000 317.0000 -59.5000 Du        
   3566 ****       256.5000 317.0000 -59.2500 Du        
   3567 ****       256.5000 317.0000 -59.0000 Du        
   3568 ****       256.5000 317.0000 -58.7500 Du        
   3569 ****       256.5000 317.0000 -58.5000 Du        
   3570 ****       256.5000 317.2500 -65.5000 Du        
   3571 ****       256.5000 317.2500 -65.2500 Du        
   3572 ****       256.5000 317.2500 -65.0000 Du        
   3573 ****       256.5000 317.2500 -64.7500 Du        
   3574 ****       256.5000 317.2500 -64.5000 Du        
   3575 ****       256.5000 317.2500 -64.2500 Du        
   3576 ****       256.5000 317.2500 -64.0000 Du        
   3577 ****       256.5000 317.2500 -63.7500 Du        
   3578 ****       256.5000 317.2500 -63.5000 Du        
   3579 ****       256.5000 317.2500 -63.2500 Du        
   3580 ****       256.5000 317.2500 -63.0000 Du        
   3581 ****       256.5000 317.2500 -62.7500 Du        
   3582 ****       256.5000 317.2500 -62.5000 Du        
   3583 ****       256.5000 317.2500 -62.2500 Du        
   3584 ****       256.5000 317.2500 -62.0000 Du        
   3585 ****       256.5000 317.2500 -61.7500 Du        
   3586 ****       256.5000 317.2500 -60.2500 Du        
   3587 ****       256.5000 317.2500 -60.0000 Du        
   3588 ****       256.5000 317.2500 -59.7500 Du        
   3589 ****       256.5000 317.2500 -59.5000 Du        
   3590 ****       256.5000 317.2500 -59.2500 Du        
   3591 ****       256.5000 317.2500 -59.0000 Du        
   3592 ****       256.5000 317.2500 -58.7500 Du        
   3593 ****       256.5000 317.5000 -65.2500 Du        
   3594 ****       256.5000 317.5000 -65.0000 Du        
   3595 ****       256.5000 317.5000 -64.7500 Du        
   3596 ****       256.5000 317.5000 -64.5000 Du        
   3597 ****       256.5000 317.5000 -64.2500 Du        
   3598 ****       256.5000 317.5000 -64.0000 Du        
   3599 ****       256.5000 317.5000 -63.7500 Du        
   3600 ****       256.5000 317.5000 -63.5000 Du        
   3601 ****       256.5000 317.5000 -63.2500 Du        
   3602 ****       256.5000 317.5000 -63.0000 Du        
   3603 ****       256.5000 317.5000 -62.7500 Du        
   3604 ****       256.5000 317.5000 -62.5000 Du        
   3605 ****       256.5000 317.5000 -62.2500 Du        
   3606 ****       256.5000 317.5000 -59.2500 Du        
   3607 ****       256.5000 317.7500 -65.2500 Du        
   3608 ****       256.5000 317.7500 -65.0000 Du        
   3609 ****       256.5000 317.7500 -64.7500 Du        
   3610 ****       256.5000 317.7500 -64.5000 Du        
   3611 ****       256.5000 317.7500 -64.2500 Du        
   3612 ****       256.5000 317.7500 -64.0000 Du        
   3613 ****       256.5000 317.7500 -63.7500 Du        
   3614 ****       256.5000 317.7500 -63.5000 Du        
   3615 ****       256.5000 317.7500 -63.2500 Du        
   3616 ****       256.5000 317.7500 -63.0000 Du        
   3617 ****       256.5000 317.7500 -62.7500 Du        
   3618 ****       256.5000 317.7500 -62.5000 Du        
   3619 ****       256.5000 318.0000 -65.0000 Du        
   3620 ****       256.5000 318.0000 -64.7500 Du        
   3621 ****       256.5000 318.0000 -64.5000 Du        
   3622 ****       256.5000 318.0000 -64.2500 Du        
   3623 ****       256.5000 318.0000 -64.0000 Du        
   3624 ****       256.5000 318.0000 -63.7500 Du        
   3625 ****       256.5000 318.0000 -63.5000 Du        
   3626 ****       256.5000 318.0000 -63.2500 Du        
   3627 ****       256.5000 318.0000 -63.0000 Du        
   3628 ****       256.5000 318.0000 -62.7500 Du        
   3629 ****       256.5000 318.2500 -64.5000 Du        
   3630 ****       256.5000 318.2500 -64.2500 Du        
   3631 ****       256.5000 318.2500 -64.0000 Du        
   3632 ****       256.5000 318.2500 -63.7500 Du        
   3633 ****       256.5000 318.2500 -63.5000 Du        
   3634 ****       256.5000 318.2500 -63.2500 Du        
   3635 ****       256.5000 318.2500 -63.0000 Du        
   3636 ****       256.5000 318.5000 -64.0000 Du        
   3637 ****       256.5000 318.5000 -63.7500 Du        
   3638 ****       256.5000 318.5000 -63.5000 Du        
   3639 ****       256.7500 314.5000 -59.0000 Du        
   3640 ****       256.7500 314.7500 -59.2500 Du        
   3641 ****       256.7500 314.7500 -59.0000 Du        
   3642 ****       256.7500 314.7500 -58.7500 Du        
   3643 ****       256.7500 314.7500 -58.5000 Du        
   3644 ****       256.7500 315.0000 -59.5000 Du        
   3645 ****       256.7500 315.0000 -59.2500 Du        
   3646 ****       256.7500 315.0000 -59.0000 Du        
   3647 ****       256.7500 315.0000 -58.7500 Du        
   3648 ****       256.7500 315.0000 -58.5000 Du        
   3649 ****       256.7500 315.0000 -58.2500 Du        
   3650 ****       256.7500 315.2500 -59.5000 Du        
   3651 ****       256.7500 315.2500 -59.2500 Du        
   3652 ****       256.7500 315.2500 -59.0000 Du        
   3653 ****       256.7500 315.2500 -58.7500 Du        
   3654 ****       256.7500 315.2500 -58.5000 Du        
   3655 ****       256.7500 315.2500 -58.2500 Du        
   3656 ****       256.7500 315.2500 -58.0000 Du        
   3657 ****       256.7500 315.5000 -59.7500 Du        
   3658 ****       256.7500 315.5000 -59.5000 Du        
   3659 ****       256.7500 315.5000 -59.2500 Du        
   3660 ****       256.7500 315.5000 -59.0000 Du        
   3661 ****       256.7500 315.5000 -58.7500 Du        
   3662 ****       256.7500 315.5000 -58.5000 Du        
   3663 ****       256.7500 315.5000 -58.2500 Du        
   3664 ****       256.7500 315.5000 -58.0000 Du        
   3665 ****       256.7500 315.7500 -59.7500 Du        
   3666 ****       256.7500 315.7500 -59.5000 Du        
   3667 ****       256.7500 315.7500 -59.2500 Du        
   3668 ****       256.7500 315.7500 -59.0000 Du        
   3669 ****       256.7500 315.7500 -58.7500 Du        
   3670 ****       256.7500 315.7500 -58.5000 Du        
   3671 ****       256.7500 315.7500 -58.2500 Du        
   3672 ****       256.7500 315.7500 -58.0000 Du        
   3673 ****       256.7500 316.0000 -60.0000 Du        
   3674 ****       256.7500 316.0000 -59.7500 Du        
   3675 ****       256.7500 316.0000 -59.5000 Du        
   3676 ****       256.7500 316.0000 -59.2500 Du        
   3677 ****       256.7500 316.0000 -59.0000 Du        
   3678 ****       256.7500 316.0000 -58.7500 Du        
   3679 ****       256.7500 316.0000 -58.5000 Du        
   3680 ****       256.7500 316.0000 -58.2500 Du        
   3681 ****       256.7500 316.0000 -58.0000 Du        
   3682 ****       256.7500 316.2500 -65.7500 Du        
   3683 ****       256.7500 316.2500 -65.5000 Du        
   3684 ****       256.7500 316.2500 -65.2500 Du        
   3685 ****       256.7500 316.2500 -65.0000 Du        
   3686 ****       256.7500 316.2500 -64.7500 Du        
   3687 ****       256.7500 316.2500 -64.5000 Du        
   3688 ****       256.7500 316.2500 -60.2500 Du        
   3689 ****       256.7500 316.2500 -60.0000 Du        
   3690 ****       256.7500 316.2500 -59.7500 Du        
   3691 ****       256.7500 316.2500 -59.5000 Du        
   3692 ****       256.7500 316.2500 -59.2500 Du        
   3693 ****       256.7500 316.2500 -59.0000 Du        
   3694 ****       256.7500 316.2500 -58.7500 Du        
   3695 ****       256.7500 316.2500 -58.5000 Du        
   3696 ****       256.7500 316.2500 -58.2500 Du        
   3697 ****       256.7500 316.5000 -65.7500 Du        
   3698 ****       256.7500 316.5000 -65.5000 Du        
   3699 ****       256.7500 316.5000 -65.2500 Du        
   3700 ****       256.7500 316.5000 -65.0000 Du        
   3701 ****       256.7500 316.5000 -64.7500 Du        
   3702 ****       256.7500 316.5000 -64.5000 Du        
   3703 ****       256.7500 316.5000 -64.2500 Du        
   3704 ****       256.7500 316.5000 -60.2500 Du        
   3705 ****       256.7500 316.5000 -60.0000 Du        
   3706 ****       256.7500 316.5000 -59.7500 Du        
   3707 ****       256.7500 316.5000 -59.5000 Du        
   3708 ****       256.7500 316.5000 -59.2500 Du        
   3709 ****       256.7500 316.5000 -59.0000 Du        
   3710 ****       256.7500 316.5000 -58.7500 Du        
   3711 ****       256.7500 316.5000 -58.5000 Du        
   3712 ****       256.7500 316.5000 -58.2500 Du        
   3713 ****       256.7500 316.7500 -65.7500 Du        
   3714 ****       256.7500 316.7500 -65.5000 Du        
   3715 ****       256.7500 316.7500 -65.2500 Du        
   3716 ****       256.7500 316.7500 -65.0000 Du        
   3717 ****       256.7500 316.7500 -64.7500 Du        
   3718 ****       256.7500 316.7500 -64.5000 Du        
   3719 ****       256.7500 316.7500 -64.2500 Du        
   3720 ****       256.7500 316.7500 -64.0000 Du        
   3721 ****       256.7500 316.7500 -63.7500 Du        
   3722 ****       256.7500 316.7500 -60.7500 Du        
   3723 ****       256.7500 316.7500 -60.5000 Du        
   3724 ****       256.7500 316.7500 -60.2500 Du        
   3725 ****       256.7500 316.7500 -60.0000 Du        
   3726 ****       256.7500 316.7500 -59.7500 Du        
   3727 ****       256.7500 316.7500 -59.5000 Du        
   3728 ****       256.7500 316.7500 -59.2500 Du        
   3729 ****       256.7500 316.7500 -59.0000 Du        
   3730 ****       256.7500 316.7500 -58.7500 Du        
   3731 ****       256.7500 316.7500 -58.5000 Du        
   3732 ****       256.7500 317.0000 -65.7500 Du        
   3733 ****       256.7500 317.0000 -65.5000 Du        
   3734 ****       256.7500 317.0000 -65.2500 Du        
   3735 ****       256.7500 317.0000 -65.0000 Du        
   3736 ****       256.7500 317.0000 -64.7500 Du        
   3737 ****       256.7500 317.0000 -64.5000 Du        
   3738 ****       256.7500 317.0000 -64.2500 Du        
   3739 ****       256.7500 317.0000 -64.0000 Du        
   3740 ****       256.7500 317.0000 -63.7500 Du        
   3741 ****       256.7500 317.0000 -63.5000 Du        
   3742 ****       256.7500 317.0000 -63.2500 Du        
   3743 ****       256.7500 317.0000 -63.0000 Du        
   3744 ****       256.7500 317.0000 -62.7500 Du        
   3745 ****       256.7500 317.0000 -61.0000 Du        
   3746 ****       256.7500 317.0000 -60.7500 Du        
   3747 ****       256.7500 317.0000 -60.5000 Du        
   3748 ****       256.7500 317.0000 -60.2500 Du        
   3749 ****       256.7500 317.0000 -60.0000 Du        
   3750 ****       256.7500 317.0000 -59.7500 Du        
   3751 ****       256.7500 317.0000 -59.5000 Du        
   3752 ****       256.7500 317.0000 -59.2500 Du        
   3753 ****       256.7500 317.0000 -59.0000 Du        
   3754 ****       256.7500 317.0000 -58.7500 Du        
   3755 ****       256.7500 317.2500 -65.5000 Du        
   3756 ****       256.7500 317.2500 -65.2500 Du        
   3757 ****       256.7500 317.2500 -65.0000 Du        
   3758 ****       256.7500 317.2500 -64.7500 Du        
   3759 ****       256.7500 317.2500 -64.5000 Du        
   3760 ****       256.7500 317.2500 -64.2500 Du        
   3761 ****       256.7500 317.2500 -64.0000 Du        
   3762 ****       256.7500 317.2500 -63.7500 Du        
   3763 ****       256.7500 317.2500 -63.5000 Du        
   3764 ****       256.7500 317.2500 -63.2500 Du        
   3765 ****       256.7500 317.2500 -63.0000 Du        
   3766 ****       256.7500 317.2500 -62.7500 Du        
   3767 ****       256.7500 317.2500 -62.5000 Du        
   3768 ****       256.7500 317.2500 -62.2500 Du        
   3769 ****       256.7500 317.2500 -62.0000 Du        
   3770 ****       256.7500 317.2500 -61.7500 Du        
   3771 ****       256.7500 317.2500 -61.5000 Du        
   3772 ****       256.7500 317.2500 -60.2500 Du        
   3773 ****       256.7500 317.2500 -60.0000 Du        
   3774 ****       256.7500 317.2500 -59.7500 Du        
   3775 ****       256.7500 317.2500 -59.5000 Du        
   3776 ****       256.7500 317.2500 -59.2500 Du        
   3777 ****       256.7500 317.2500 -59.0000 Du        
   3778 ****       256.7500 317.5000 -65.2500 Du        
   3779 ****       256.7500 317.5000 -65.0000 Du        
   3780 ****       256.7500 317.5000 -64.7500 Du        
   3781 ****       256.7500 317.5000 -64.5000 Du        
   3782 ****       256.7500 317.5000 -64.2500 Du        
   3783 ****       256.7500 317.5000 -64.0000 Du        
   3784 ****       256.7500 317.5000 -63.7500 Du        
   3785 ****       256.7500 317.5000 -63.5000 Du        
   3786 ****       256.7500 317.5000 -63.2500 Du        
   3787 ****       256.7500 317.5000 -63.0000 Du        
   3788 ****       256.7500 317.5000 -62.7500 Du        
   3789 ****       256.7500 317.5000 -62.5000 Du        
   3790 ****       256.7500 317.5000 -62.2500 Du        
   3791 ****       256.7500 317.7500 -64.5000 Du        
   3792 ****       256.7500 317.7500 -64.2500 Du        
   3793 ****       256.7500 317.7500 -64.0000 Du        
   3794 ****       256.7500 317.7500 -63.7500 Du        
   3795 ****       256.7500 317.7500 -63.5000 Du        
   3796 ****       256.7500 317.7500 -63.2500 Du        
   3797 ****       256.7500 317.7500 -63.0000 Du        
   3798 ****       256.7500 317.7500 -62.7500 Du        
   3799 ****       256.7500 317.7500 -62.5000 Du        
   3800 ****       256.7500 318.0000 -64.2500 Du        
   3801 ****       256.7500 318.0000 -64.0000 Du        
   3802 ****       256.7500 318.0000 -63.7500 Du        
   3803 ****       256.7500 318.0000 -63.5000 Du        
   3804 ****       256.7500 318.0000 -63.2500 Du        
   3805 ****       256.7500 318.0000 -63.0000 Du        
   3806 ****       256.7500 318.0000 -62.7500 Du        
   3807 ****       256.7500 318.2500 -64.0000 Du        
   3808 ****       256.7500 318.2500 -63.7500 Du        
   3809 ****       256.7500 318.2500 -63.5000 Du        
   3810 ****       256.7500 318.2500 -63.2500 Du        
   3811 ****       256.7500 318.2500 -63.0000 Du        
   3812 ****       256.7500 318.5000 -63.5000 Du        
   3813 ****       257.0000 314.5000 -59.0000 Du        
   3814 ****       257.0000 314.7500 -59.2500 Du        
   3815 ****       257.0000 314.7500 -59.0000 Du        
   3816 ****       257.0000 314.7500 -58.7500 Du        
   3817 ****       257.0000 315.0000 -59.5000 Du        
   3818 ****       257.0000 315.0000 -59.2500 Du        
   3819 ****       257.0000 315.0000 -59.0000 Du        
   3820 ****       257.0000 315.0000 -58.7500 Du        
   3821 ****       257.0000 315.0000 -58.5000 Du        
   3822 ****       257.0000 315.2500 -59.5000 Du        
   3823 ****       257.0000 315.2500 -59.2500 Du        
   3824 ****       257.0000 315.2500 -59.0000 Du        
   3825 ****       257.0000 315.2500 -58.7500 Du        
   3826 ****       257.0000 315.2500 -58.5000 Du        
   3827 ****       257.0000 315.2500 -58.2500 Du        
   3828 ****       257.0000 315.5000 -59.7500 Du        
   3829 ****       257.0000 315.5000 -59.5000 Du        
   3830 ****       257.0000 315.5000 -59.2500 Du        
   3831 ****       257.0000 315.5000 -59.0000 Du        
   3832 ****       257.0000 315.5000 -58.7500 Du        
   3833 ****       257.0000 315.5000 -58.5000 Du        
   3834 ****       257.0000 315.5000 -58.2500 Du        
   3835 ****       257.0000 315.7500 -60.0000 Du        
   3836 ****       257.0000 315.7500 -59.7500 Du        
   3837 ****       257.0000 315.7500 -59.5000 Du        
   3838 ****       257.0000 315.7500 -59.2500 Du        
   3839 ****       257.0000 315.7500 -59.0000 Du        
   3840 ****       257.0000 315.7500 -58.7500 Du        
   3841 ****       257.0000 315.7500 -58.5000 Du        
   3842 ****       257.0000 315.7500 -58.2500 Du        
   3843 ****       257.0000 315.7500 -58.0000 Du        
   3844 ****       257.0000 316.0000 -60.0000 Du        
   3845 ****       257.0000 316.0000 -59.7500 Du        
   3846 ****       257.0000 316.0000 -59.5000 Du        
   3847 ****       257.0000 316.0000 -59.2500 Du        
   3848 ****       257.0000 316.0000 -59.0000 Du        
   3849 ****       257.0000 316.0000 -58.7500 Du        
   3850 ****       257.0000 316.0000 -58.5000 Du        
   3851 ****       257.0000 316.0000 -58.2500 Du        
   3852 ****       257.0000 316.2500 -65.2500 Du        
   3853 ****       257.0000 316.2500 -65.0000 Du        
   3854 ****       257.0000 316.2500 -64.7500 Du        
   3855 ****       257.0000 316.2500 -60.2500 Du        
   3856 ****       257.0000 316.2500 -60.0000 Du        
   3857 ****       257.0000 316.2500 -59.7500 Du        
   3858 ****       257.0000 316.2500 -59.5000 Du        
   3859 ****       257.0000 316.2500 -59.2500 Du        
   3860 ****       257.0000 316.2500 -59.0000 Du        
   3861 ****       257.0000 316.2500 -58.7500 Du        
   3862 ****       257.0000 316.2500 -58.5000 Du        
   3863 ****       257.0000 316.2500 -58.2500 Du        
   3864 ****       257.0000 316.5000 -65.5000 Du        
   3865 ****       257.0000 316.5000 -65.2500 Du        
   3866 ****       257.0000 316.5000 -65.0000 Du        
   3867 ****       257.0000 316.5000 -64.7500 Du        
   3868 ****       257.0000 316.5000 -64.5000 Du        
   3869 ****       257.0000 316.5000 -60.2500 Du        
   3870 ****       257.0000 316.5000 -60.0000 Du        
   3871 ****       257.0000 316.5000 -59.7500 Du        
   3872 ****       257.0000 316.5000 -59.5000 Du        
   3873 ****       257.0000 316.5000 -59.2500 Du        
   3874 ****       257.0000 316.5000 -59.0000 Du        
   3875 ****       257.0000 316.5000 -58.7500 Du        
   3876 ****       257.0000 316.5000 -58.5000 Du        
   3877 ****       257.0000 316.7500 -65.5000 Du        
   3878 ****       257.0000 316.7500 -65.2500 Du        
   3879 ****       257.0000 316.7500 -65.0000 Du        
   3880 ****       257.0000 316.7500 -64.7500 Du        
   3881 ****       257.0000 316.7500 -64.5000 Du        
   3882 ****       257.0000 316.7500 -64.2500 Du        
   3883 ****       257.0000 316.7500 -64.0000 Du        
   3884 ****       257.0000 316.7500 -60.7500 Du        
   3885 ****       257.0000 316.7500 -60.5000 Du        
   3886 ****       257.0000 316.7500 -60.2500 Du        
   3887 ****       257.0000 316.7500 -60.0000 Du        
   3888 ****       257.0000 316.7500 -59.7500 Du        
   3889 ****       257.0000 316.7500 -59.5000 Du        
   3890 ****       257.0000 316.7500 -59.2500 Du        
   3891 ****       257.0000 316.7500 -59.0000 Du        
   3892 ****       257.0000 316.7500 -58.7500 Du        
   3893 ****       257.0000 317.0000 -65.2500 Du        
   3894 ****       257.0000 317.0000 -65.0000 Du        
   3895 ****       257.0000 317.0000 -64.7500 Du        
   3896 ****       257.0000 317.0000 -64.5000 Du        
   3897 ****       257.0000 317.0000 -64.2500 Du        
   3898 ****       257.0000 317.0000 -64.0000 Du        
   3899 ****       257.0000 317.0000 -63.7500 Du        
   3900 ****       257.0000 317.0000 -63.5000 Du        
   3901 ****       257.0000 317.0000 -63.2500 Du        
   3902 ****       257.0000 317.0000 -63.0000 Du        
   3903 ****       257.0000 317.0000 -62.7500 Du        
   3904 ****       257.0000 317.0000 -61.2500 Du        
   3905 ****       257.0000 317.0000 -61.0000 Du        
   3906 ****       257.0000 317.0000 -60.7500 Du        
   3907 ****       257.0000 317.0000 -60.5000 Du        
   3908 ****       257.0000 317.0000 -60.2500 Du        
   3909 ****       257.0000 317.0000 -60.0000 Du        
   3910 ****       257.0000 317.0000 -59.7500 Du        
   3911 ****       257.0000 317.0000 -59.5000 Du        
   3912 ****       257.0000 317.0000 -59.2500 Du        
   3913 ****       257.0000 317.0000 -59.0000 Du        
   3914 ****       257.0000 317.2500 -64.5000 Du        
   3915 ****       257.0000 317.2500 -64.2500 Du        
   3916 ****       257.0000 317.2500 -64.0000 Du        
   3917 ****       257.0000 317.2500 -63.7500 Du        
   3918 ****       257.0000 317.2500 -63.5000 Du        
   3919 ****       257.0000 317.2500 -63.2500 Du        
   3920 ****       257.0000 317.2500 -63.0000 Du        
   3921 ****       257.0000 317.2500 -62.7500 Du        
   3922 ****       257.0000 317.2500 -62.5000 Du        
   3923 ****       257.0000 317.2500 -62.2500 Du        
   3924 ****       257.0000 317.2500 -62.0000 Du        
   3925 ****       257.0000 317.2500 -60.0000 Du        
   3926 ****       257.0000 317.2500 -59.7500 Du        
   3927 ****       257.0000 317.2500 -59.5000 Du        
   3928 ****       257.0000 317.5000 -64.0000 Du        
   3929 ****       257.0000 317.5000 -63.7500 Du        
   3930 ****       257.0000 317.5000 -63.5000 Du        
   3931 ****       257.0000 317.5000 -63.2500 Du        
   3932 ****       257.0000 317.5000 -63.0000 Du        
   3933 ****       257.0000 317.5000 -62.7500 Du        
   3934 ****       257.0000 317.5000 -62.5000 Du        
   3935 ****       257.0000 317.5000 -62.2500 Du        
   3936 ****       257.0000 317.7500 -64.0000 Du        
   3937 ****       257.0000 317.7500 -63.7500 Du        
   3938 ****       257.0000 317.7500 -63.5000 Du        
   3939 ****       257.0000 317.7500 -63.2500 Du        
   3940 ****       257.0000 317.7500 -63.0000 Du        
   3941 ****       257.0000 317.7500 -62.7500 Du        
   3942 ****       257.0000 317.7500 -62.5000 Du        
   3943 ****       257.0000 318.0000 -63.7500 Du        
   3944 ****       257.0000 318.0000 -63.5000 Du        
   3945 ****       257.0000 318.0000 -63.2500 Du        
   3946 ****       257.0000 318.0000 -63.0000 Du        
   3947 ****       257.0000 318.0000 -62.7500 Du        
   3948 ****       257.0000 318.2500 -63.5000 Du        
   3949 ****       257.0000 318.2500 -63.2500 Du        
   3950 ****       257.0000 318.2500 -63.0000 Du        
   3951 ****       257.2500 314.7500 -59.2500 Du        
   3952 ****       257.2500 314.7500 -59.0000 Du        
   3953 ****       257.2500 315.0000 -59.2500 Du        
   3954 ****       257.2500 315.0000 -59.0000 Du        
   3955 ****       257.2500 315.0000 -58.7500 Du        
   3956 ****       257.2500 315.2500 -59.5000 Du        
   3957 ****       257.2500 315.2500 -59.2500 Du        
   3958 ****       257.2500 315.2500 -59.0000 Du        
   3959 ****       257.2500 315.2500 -58.7500 Du        
   3960 ****       257.2500 315.2500 -58.5000 Du        
   3961 ****       257.2500 315.5000 -59.7500 Du        
   3962 ****       257.2500 315.5000 -59.5000 Du        
   3963 ****       257.2500 315.5000 -59.2500 Du        
   3964 ****       257.2500 315.5000 -59.0000 Du        
   3965 ****       257.2500 315.5000 -58.7500 Du        
   3966 ****       257.2500 315.5000 -58.5000 Du        
   3967 ****       257.2500 315.7500 -59.7500 Du        
   3968 ****       257.2500 315.7500 -59.5000 Du        
   3969 ****       257.2500 315.7500 -59.2500 Du        
   3970 ****       257.2500 315.7500 -59.0000 Du        
   3971 ****       257.2500 315.7500 -58.7500 Du        
   3972 ****       257.2500 315.7500 -58.5000 Du        
   3973 ****       257.2500 315.7500 -58.2500 Du        
   3974 ****       257.2500 316.0000 -60.0000 Du        
   3975 ****       257.2500 316.0000 -59.7500 Du        
   3976 ****       257.2500 316.0000 -59.5000 Du        
   3977 ****       257.2500 316.0000 -59.2500 Du        
   3978 ****       257.2500 316.0000 -59.0000 Du        
   3979 ****       257.2500 316.0000 -58.7500 Du        
   3980 ****       257.2500 316.0000 -58.5000 Du        
   3981 ****       257.2500 316.0000 -58.2500 Du        
   3982 ****       257.2500 316.2500 -60.2500 Du        
   3983 ****       257.2500 316.2500 -60.0000 Du        
   3984 ****       257.2500 316.2500 -59.7500 Du        
   3985 ****       257.2500 316.2500 -59.5000 Du        
   3986 ****       257.2500 316.2500 -59.2500 Du        
   3987 ****       257.2500 316.2500 -59.0000 Du        
   3988 ****       257.2500 316.2500 -58.7500 Du        
   3989 ****       257.2500 316.2500 -58.5000 Du        
   3990 ****       257.2500 316.5000 -65.0000 Du        
   3991 ****       257.2500 316.5000 -64.7500 Du        
   3992 ****       257.2500 316.5000 -60.2500 Du        
   3993 ****       257.2500 316.5000 -60.0000 Du        
   3994 ****       257.2500 316.5000 -59.7500 Du        
   3995 ****       257.2500 316.5000 -59.5000 Du        
   3996 ****       257.2500 316.5000 -59.2500 Du        
   3997 ****       257.2500 316.5000 -59.0000 Du        
   3998 ****       257.2500 316.5000 -58.7500 Du        
   3999 ****       257.2500 316.7500 -64.7500 Du        
   4000 ****       257.2500 316.7500 -60.7500 Du        
   4001 ****       257.2500 316.7500 -60.5000 Du        
   4002 ****       257.2500 316.7500 -60.2500 Du        
   4003 ****       257.2500 316.7500 -60.0000 Du        
   4004 ****       257.2500 316.7500 -59.7500 Du        
   4005 ****       257.2500 316.7500 -59.5000 Du        
   4006 ****       257.2500 316.7500 -59.2500 Du        
   4007 ****       257.2500 316.7500 -59.0000 Du        
   4008 ****       257.2500 317.0000 -64.0000 Du        
   4009 ****       257.2500 317.0000 -63.7500 Du        
   4010 ****       257.2500 317.0000 -63.5000 Du        
   4011 ****       257.2500 317.0000 -63.2500 Du        
   4012 ****       257.2500 317.0000 -61.0000 Du        
   4013 ****       257.2500 317.0000 -60.7500 Du        
   4014 ****       257.2500 317.0000 -60.5000 Du        
   4015 ****       257.2500 317.0000 -60.2500 Du        
   4016 ****       257.2500 317.0000 -60.0000 Du        
   4017 ****       257.2500 317.0000 -59.7500 Du        
   4018 ****       257.2500 317.0000 -59.5000 Du        
   4019 ****       257.2500 317.0000 -59.2500 Du        
   4020 ****       257.2500 317.2500 -63.7500 Du        
   4021 ****       257.2500 317.2500 -63.5000 Du        
   4022 ****       257.2500 317.2500 -63.2500 Du        
   4023 ****       257.2500 317.2500 -63.0000 Du        
   4024 ****       257.2500 317.2500 -62.7500 Du        
   4025 ****       257.2500 317.2500 -62.5000 Du        
   4026 ****       257.2500 317.2500 -62.2500 Du        
   4027 ****       257.2500 317.5000 -63.5000 Du        
   4028 ****       257.2500 317.5000 -63.2500 Du        
   4029 ****       257.2500 317.5000 -63.0000 Du        
   4030 ****       257.2500 317.5000 -62.7500 Du        
   4031 ****       257.2500 317.5000 -62.5000 Du        
   4032 ****       257.2500 317.7500 -63.5000 Du        
   4033 ****       257.2500 317.7500 -63.2500 Du        
   4034 ****       257.2500 317.7500 -63.0000 Du        
   4035 ****       257.2500 317.7500 -62.7500 Du        
   4036 ****       257.2500 318.0000 -63.2500 Du        
   4037 ****       257.2500 318.0000 -63.0000 Du        
   4038 ****       257.2500 318.0000 -62.7500 Du        
   4039 ****       257.5000 315.0000 -59.2500 Du        
   4040 ****       257.5000 315.0000 -59.0000 Du        
   4041 ****       257.5000 315.2500 -59.5000 Du        
   4042 ****       257.5000 315.2500 -59.2500 Du        
   4043 ****       257.5000 315.2500 -59.0000 Du        
   4044 ****       257.5000 315.2500 -58.7500 Du        
   4045 ****       257.5000 315.5000 -59.5000 Du        
   4046 ****       257.5000 315.5000 -59.2500 Du        
   4047 ****       257.5000 315.5000 -59.0000 Du        
   4048 ****       257.5000 315.5000 -58.7500 Du        
   4049 ****       257.5000 315.7500 -59.7500 Du        
   4050 ****       257.5000 315.7500 -59.5000 Du        
   4051 ****       257.5000 315.7500 -59.2500 Du        
   4052 ****       257.5000 315.7500 -59.0000 Du        
   4053 ****       257.5000 315.7500 -58.7500 Du        
   4054 ****       257.5000 315.7500 -58.5000 Du        
   4055 ****       257.5000 316.0000 -60.0000 Du        
   4056 ****       257.5000 316.0000 -59.7500 Du        
   4057 ****       257.5000 316.0000 -59.5000 Du        
   4058 ****       257.5000 316.0000 -59.2500 Du        
   4059 ****       257.5000 316.0000 -59.0000 Du        
   4060 ****       257.5000 316.0000 -58.7500 Du        
   4061 ****       257.5000 316.0000 -58.5000 Du        
   4062 ****       257.5000 316.0000 -58.2500 Du        
   4063 ****       257.5000 316.2500 -60.2500 Du        
   4064 ****       257.5000 316.2500 -60.0000 Du        
   4065 ****       257.5000 316.2500 -59.7500 Du        
   4066 ****       257.5000 316.2500 -59.5000 Du        
   4067 ****       257.5000 316.2500 -59.2500 Du        
   4068 ****       257.5000 316.2500 -59.0000 Du        
   4069 ****       257.5000 316.2500 -58.7500 Du        
   4070 ****       257.5000 316.2500 -58.5000 Du        
   4071 ****       257.5000 316.5000 -60.5000 Du        
   4072 ****       257.5000 316.5000 -60.2500 Du        
   4073 ****       257.5000 316.5000 -60.0000 Du        
   4074 ****       257.5000 316.5000 -59.7500 Du        
   4075 ****       257.5000 316.5000 -59.5000 Du        
   4076 ****       257.5000 316.5000 -59.2500 Du        
   4077 ****       257.5000 316.5000 -59.0000 Du        
   4078 ****       257.5000 316.5000 -58.7500 Du        
   4079 ****       257.5000 316.7500 -60.7500 Du        
   4080 ****       257.5000 316.7500 -60.5000 Du        
   4081 ****       257.5000 316.7500 -60.2500 Du        
   4082 ****       257.5000 316.7500 -60.0000 Du        
   4083 ****       257.5000 316.7500 -59.7500 Du        
   4084 ****       257.5000 316.7500 -59.5000 Du        
   4085 ****       257.5000 316.7500 -59.2500 Du        
   4086 ****       257.5000 317.0000 -60.7500 Du        
   4087 ****       257.5000 317.0000 -60.5000 Du        
   4088 ****       257.5000 317.0000 -60.2500 Du        
   4089 ****       257.5000 317.0000 -60.0000 Du        
   4090 ****       257.5000 317.0000 -59.7500 Du        
   4091 ****       257.5000 317.0000 -59.5000 Du        
   4092 ****       257.5000 317.2500 -63.5000 Du        
   4093 ****       257.5000 317.2500 -63.2500 Du        
   4094 ****       257.5000 317.2500 -63.0000 Du        
   4095 ****       257.5000 317.2500 -62.7500 Du        
   4096 ****       257.5000 317.2500 -62.5000 Du        
   4097 ****       257.5000 317.2500 -62.2500 Du        
   4098 ****       257.5000 317.2500 -62.0000 Du        
   4099 ****       257.5000 317.5000 -63.2500 Du        
   4100 ****       257.5000 317.5000 -63.0000 Du        
   4101 ****       257.5000 317.5000 -62.7500 Du        
   4102 ****       257.5000 317.5000 -62.5000 Du        
   4103 ****       257.5000 317.7500 -63.2500 Du        
   4104 ****       257.5000 317.7500 -63.0000 Du        
   4105 ****       257.5000 317.7500 -62.7500 Du        
   4106 ****       257.5000 318.0000 -63.0000 Du        
   4107 ****       257.5000 323.2500 -57.5000 Du        
   4108 ****       257.5000 323.2500 -57.2500 Du        
   4109 ****       257.5000 323.5000 -57.7500 Du        
   4110 ****       257.5000 323.5000 -57.5000 Du        
   4111 ****       257.5000 323.5000 -57.2500 Du        
   4112 ****       257.5000 323.5000 -57.0000 Du        
   4113 ****       257.5000 323.7500 -58.0000 Du        
   4114 ****       257.5000 323.7500 -57.7500 Du        
   4115 ****       257.5000 323.7500 -57.5000 Du        
   4116 ****       257.5000 323.7500 -57.2500 Du        
   4117 ****       257.5000 323.7500 -57.0000 Du        
   4118 ****       257.5000 324.0000 -58.0000 Du        
   4119 ****       257.5000 324.0000 -57.7500 Du        
   4120 ****       257.5000 324.0000 -57.5000 Du        
   4121 ****       257.5000 324.0000 -57.2500 Du        
   4122 ****       257.5000 324.2500 -58.0000 Du        
   4123 ****       257.5000 324.2500 -57.7500 Du        
   4124 ****       257.5000 324.5000 -58.0000 Du        
   4125 ****       257.7500 315.2500 -59.5000 Du        
   4126 ****       257.7500 315.2500 -59.2500 Du        
   4127 ****       257.7500 315.2500 -59.0000 Du        
   4128 ****       257.7500 315.5000 -59.5000 Du        
   4129 ****       257.7500 315.5000 -59.2500 Du        
   4130 ****       257.7500 315.5000 -59.0000 Du        
   4131 ****       257.7500 315.5000 -58.7500 Du        
   4132 ****       257.7500 315.7500 -59.7500 Du        
   4133 ****       257.7500 315.7500 -59.5000 Du        
   4134 ****       257.7500 315.7500 -59.2500 Du        
   4135 ****       257.7500 315.7500 -59.0000 Du        
   4136 ****       257.7500 315.7500 -58.7500 Du        
   4137 ****       257.7500 315.7500 -58.5000 Du        
   4138 ****       257.7500 316.0000 -60.0000 Du        
   4139 ****       257.7500 316.0000 -59.7500 Du        
   4140 ****       257.7500 316.0000 -59.5000 Du        
   4141 ****       257.7500 316.0000 -59.2500 Du        
   4142 ****       257.7500 316.0000 -59.0000 Du        
   4143 ****       257.7500 316.0000 -58.7500 Du        
   4144 ****       257.7500 316.0000 -58.5000 Du        
   4145 ****       257.7500 316.2500 -60.2500 Du        
   4146 ****       257.7500 316.2500 -60.0000 Du        
   4147 ****       257.7500 316.2500 -59.7500 Du        
   4148 ****       257.7500 316.2500 -59.5000 Du        
   4149 ****       257.7500 316.2500 -59.2500 Du        
   4150 ****       257.7500 316.2500 -59.0000 Du        
   4151 ****       257.7500 316.2500 -58.7500 Du        
   4152 ****       257.7500 316.5000 -60.5000 Du        
   4153 ****       257.7500 316.5000 -60.2500 Du        
   4154 ****       257.7500 316.5000 -60.0000 Du        
   4155 ****       257.7500 316.5000 -59.7500 Du        
   4156 ****       257.7500 316.5000 -59.5000 Du        
   4157 ****       257.7500 316.5000 -59.2500 Du        
   4158 ****       257.7500 316.5000 -59.0000 Du        
   4159 ****       257.7500 316.7500 -60.7500 Du        
   4160 ****       257.7500 316.7500 -60.5000 Du        
   4161 ****       257.7500 316.7500 -60.2500 Du        
   4162 ****       257.7500 316.7500 -60.0000 Du        
   4163 ****       257.7500 316.7500 -59.7500 Du        
   4164 ****       257.7500 316.7500 -59.5000 Du        
   4165 ****       257.7500 316.7500 -59.2500 Du        
   4166 ****       257.7500 317.0000 -60.2500 Du        
   4167 ****       257.7500 317.0000 -60.0000 Du        
   4168 ****       257.7500 317.2500 -63.0000 Du        
   4169 ****       257.7500 317.2500 -62.7500 Du        
   4170 ****       257.7500 317.2500 -62.5000 Du        
   4171 ****       257.7500 317.2500 -62.2500 Du        
   4172 ****       257.7500 317.5000 -63.0000 Du        
   4173 ****       257.7500 317.5000 -62.7500 Du        
   4174 ****       257.7500 317.7500 -63.0000 Du        
   4175 ****       257.7500 317.7500 -62.7500 Du        
   4176 ****       257.7500 323.2500 -57.5000 Du        
   4177 ****       257.7500 323.2500 -57.2500 Du        
   4178 ****       257.7500 323.5000 -57.7500 Du        
   4179 ****       257.7500 323.5000 -57.5000 Du        
   4180 ****       257.7500 323.5000 -57.2500 Du        
   4181 ****       257.7500 323.5000 -57.0000 Du        
   4182 ****       257.7500 323.5000 -56.7500 Du        
   4183 ****       257.7500 323.7500 -58.0000 Du        
   4184 ****       257.7500 323.7500 -57.7500 Du        
   4185 ****       257.7500 323.7500 -57.5000 Du        
   4186 ****       257.7500 323.7500 -57.2500 Du        
   4187 ****       257.7500 323.7500 -57.0000 Du        
   4188 ****       257.7500 323.7500 -56.7500 Du        
   4189 ****       257.7500 324.0000 -58.0000 Du        
   4190 ****       257.7500 324.0000 -57.7500 Du        
   4191 ****       257.7500 324.0000 -57.5000 Du        
   4192 ****       257.7500 324.0000 -57.2500 Du        
   4193 ****       257.7500 324.0000 -57.0000 Du        
   4194 ****       257.7500 324.2500 -58.0000 Du        
   4195 ****       257.7500 324.2500 -57.7500 Du        
   4196 ****       257.7500 324.2500 -57.5000 Du        
   4197 ****       257.7500 324.5000 -58.0000 Du        
   4198 ****       258.0000 315.2500 -59.2500 Du        
   4199 ****       258.0000 315.2500 -59.0000 Du        
   4200 ****       258.0000 315.5000 -59.5000 Du        
   4201 ****       258.0000 315.5000 -59.2500 Du        
   4202 ****       258.0000 315.5000 -59.0000 Du        
   4203 ****       258.0000 315.5000 -58.7500 Du        
   4204 ****       258.0000 315.7500 -59.7500 Du        
   4205 ****       258.0000 315.7500 -59.5000 Du        
   4206 ****       258.0000 315.7500 -59.2500 Du        
   4207 ****       258.0000 315.7500 -59.0000 Du        
   4208 ****       258.0000 315.7500 -58.7500 Du        
   4209 ****       258.0000 316.0000 -60.0000 Du        
   4210 ****       258.0000 316.0000 -59.7500 Du        
   4211 ****       258.0000 316.0000 -59.5000 Du        
   4212 ****       258.0000 316.0000 -59.2500 Du        
   4213 ****       258.0000 316.0000 -59.0000 Du        
   4214 ****       258.0000 316.0000 -58.7500 Du        
   4215 ****       258.0000 316.0000 -58.5000 Du        
   4216 ****       258.0000 316.2500 -60.2500 Du        
   4217 ****       258.0000 316.2500 -60.0000 Du        
   4218 ****       258.0000 316.2500 -59.7500 Du        
   4219 ****       258.0000 316.2500 -59.5000 Du        
   4220 ****       258.0000 316.2500 -59.2500 Du        
   4221 ****       258.0000 316.2500 -59.0000 Du        
   4222 ****       258.0000 316.2500 -58.7500 Du        
   4223 ****       258.0000 316.5000 -60.5000 Du        
   4224 ****       258.0000 316.5000 -60.2500 Du        
   4225 ****       258.0000 316.5000 -60.0000 Du        
   4226 ****       258.0000 316.5000 -59.7500 Du        
   4227 ****       258.0000 316.5000 -59.5000 Du        
   4228 ****       258.0000 316.5000 -59.2500 Du        
   4229 ****       258.0000 316.5000 -59.0000 Du        
   4230 ****       258.0000 316.7500 -60.7500 Du        
   4231 ****       258.0000 316.7500 -60.5000 Du        
   4232 ****       258.0000 316.7500 -60.2500 Du        
   4233 ****       258.0000 316.7500 -60.0000 Du        
   4234 ****       258.0000 316.7500 -59.7500 Du        
   4235 ****       258.0000 316.7500 -59.5000 Du        
   4236 ****       258.0000 317.2500 -62.7500 Du        
   4237 ****       258.0000 317.5000 -62.7500 Du        
   4238 ****       258.0000 323.2500 -57.5000 Du        
   4239 ****       258.0000 323.2500 -57.2500 Du        
   4240 ****       258.0000 323.2500 -57.0000 Du        
   4241 ****       258.0000 323.5000 -57.7500 Du        
   4242 ****       258.0000 323.5000 -57.5000 Du        
   4243 ****       258.0000 323.5000 -57.2500 Du        
   4244 ****       258.0000 323.5000 -57.0000 Du        
   4245 ****       258.0000 323.5000 -56.7500 Du        
   4246 ****       258.0000 323.5000 -56.5000 Du        
   4247 ****       258.0000 323.7500 -58.0000 Du        
   4248 ****       258.0000 323.7500 -57.7500 Du        
   4249 ****       258.0000 323.7500 -57.5000 Du        
   4250 ****       258.0000 323.7500 -57.2500 Du        
   4251 ****       258.0000 323.7500 -57.0000 Du        
   4252 ****       258.0000 323.7500 -56.7500 Du        
   4253 ****       258.0000 323.7500 -56.5000 Du        
   4254 ****       258.0000 324.0000 -58.0000 Du        
   4255 ****       258.0000 324.0000 -57.7500 Du        
   4256 ****       258.0000 324.0000 -57.5000 Du        
   4257 ****       258.0000 324.0000 -57.2500 Du        
   4258 ****       258.0000 324.0000 -57.0000 Du        
   4259 ****       258.0000 324.2500 -58.0000 Du        
   4260 ****       258.0000 324.2500 -57.7500 Du        
   4261 ****       258.0000 324.2500 -57.5000 Du        
   4262 ****       258.0000 324.5000 -58.0000 Du        
   4263 ****       258.2500 315.2500 -59.2500 Du        
   4264 ****       258.2500 315.5000 -59.7500 Du        
   4265 ****       258.2500 315.5000 -59.5000 Du        
   4266 ****       258.2500 315.5000 -59.2500 Du        
   4267 ****       258.2500 315.5000 -59.0000 Du        
   4268 ****       258.2500 315.7500 -60.0000 Du        
   4269 ****       258.2500 315.7500 -59.7500 Du        
   4270 ****       258.2500 315.7500 -59.5000 Du        
   4271 ****       258.2500 315.7500 -59.2500 Du        
   4272 ****       258.2500 315.7500 -59.0000 Du        
   4273 ****       258.2500 315.7500 -58.7500 Du        
   4274 ****       258.2500 316.0000 -60.0000 Du        
   4275 ****       258.2500 316.0000 -59.7500 Du        
   4276 ****       258.2500 316.0000 -59.5000 Du        
   4277 ****       258.2500 316.0000 -59.2500 Du        
   4278 ****       258.2500 316.0000 -59.0000 Du        
   4279 ****       258.2500 316.0000 -58.7500 Du        
   4280 ****       258.2500 316.2500 -60.2500 Du        
   4281 ****       258.2500 316.2500 -60.0000 Du        
   4282 ****       258.2500 316.2500 -59.7500 Du        
   4283 ****       258.2500 316.2500 -59.5000 Du        
   4284 ****       258.2500 316.2500 -59.2500 Du        
   4285 ****       258.2500 316.2500 -59.0000 Du        
   4286 ****       258.2500 316.2500 -58.7500 Du        
   4287 ****       258.2500 316.5000 -60.5000 Du        
   4288 ****       258.2500 316.5000 -60.2500 Du        
   4289 ****       258.2500 316.5000 -60.0000 Du        
   4290 ****       258.2500 316.5000 -59.7500 Du        
   4291 ****       258.2500 316.5000 -59.5000 Du        
   4292 ****       258.2500 316.5000 -59.2500 Du        
   4293 ****       258.2500 316.7500 -60.7500 Du        
   4294 ****       258.2500 316.7500 -60.5000 Du        
   4295 ****       258.2500 316.7500 -60.2500 Du        
   4296 ****       258.2500 316.7500 -60.0000 Du        
   4297 ****       258.2500 316.7500 -59.7500 Du        
   4298 ****       258.2500 316.7500 -59.5000 Du        
   4299 ****       258.2500 323.2500 -57.5000 Du        
   4300 ****       258.2500 323.2500 -57.2500 Du        
   4301 ****       258.2500 323.2500 -57.0000 Du        
   4302 ****       258.2500 323.5000 -57.7500 Du        
   4303 ****       258.2500 323.5000 -57.5000 Du        
   4304 ****       258.2500 323.5000 -57.2500 Du        
   4305 ****       258.2500 323.5000 -57.0000 Du        
   4306 ****       258.2500 323.5000 -56.7500 Du        
   4307 ****       258.2500 323.5000 -56.5000 Du        
   4308 ****       258.2500 323.7500 -57.7500 Du        
   4309 ****       258.2500 323.7500 -57.5000 Du        
   4310 ****       258.2500 323.7500 -57.2500 Du        
   4311 ****       258.2500 323.7500 -57.0000 Du        
   4312 ****       258.2500 323.7500 -56.7500 Du        
   4313 ****       258.2500 323.7500 -56.5000 Du        
   4314 ****       258.2500 324.0000 -58.0000 Du        
   4315 ****       258.2500 324.0000 -57.7500 Du        
   4316 ****       258.2500 324.0000 -57.5000 Du        
   4317 ****       258.2500 324.0000 -57.2500 Du        
   4318 ****       258.2500 324.0000 -57.0000 Du        
   4319 ****       258.2500 324.0000 -56.7500 Du        
   4320 ****       258.2500 324.2500 -58.0000 Du        
   4321 ****       258.2500 324.2500 -57.7500 Du        
   4322 ****       258.2500 324.2500 -57.5000 Du        
   4323 ****       258.5000 315.2500 -59.2500 Du        
   4324 ****       258.5000 315.5000 -59.7500 Du        
   4325 ****       258.5000 315.5000 -59.5000 Du        
   4326 ****       258.5000 315.5000 -59.2500 Du        
   4327 ****       258.5000 315.5000 -59.0000 Du        
   4328 ****       258.5000 315.7500 -60.0000 Du        
   4329 ****       258.5000 315.7500 -59.7500 Du        
   4330 ****       258.5000 315.7500 -59.5000 Du        
   4331 ****       258.5000 315.7500 -59.2500 Du        
   4332 ****       258.5000 315.7500 -59.0000 Du        
   4333 ****       258.5000 315.7500 -58.7500 Du        
   4334 ****       258.5000 316.0000 -60.2500 Du        
   4335 ****       258.5000 316.0000 -60.0000 Du        
   4336 ****       258.5000 316.0000 -59.7500 Du        
   4337 ****       258.5000 316.0000 -59.5000 Du        
   4338 ****       258.5000 316.0000 -59.2500 Du        
   4339 ****       258.5000 316.0000 -59.0000 Du        
   4340 ****       258.5000 316.0000 -58.7500 Du        
   4341 ****       258.5000 316.2500 -60.5000 Du        
   4342 ****       258.5000 316.2500 -60.2500 Du        
   4343 ****       258.5000 316.2500 -60.0000 Du        
   4344 ****       258.5000 316.2500 -59.7500 Du        
   4345 ****       258.5000 316.2500 -59.5000 Du        
   4346 ****       258.5000 316.2500 -59.2500 Du        
   4347 ****       258.5000 316.2500 -59.0000 Du        
   4348 ****       258.5000 316.2500 -58.7500 Du        
   4349 ****       258.5000 316.5000 -60.5000 Du        
   4350 ****       258.5000 316.5000 -60.2500 Du        
   4351 ****       258.5000 316.5000 -60.0000 Du        
   4352 ****       258.5000 316.5000 -59.7500 Du        
   4353 ****       258.5000 316.5000 -59.5000 Du        
   4354 ****       258.5000 316.5000 -59.2500 Du        
   4355 ****       258.5000 316.7500 -60.2500 Du        
   4356 ****       258.5000 316.7500 -60.0000 Du        
   4357 ****       258.5000 316.7500 -59.7500 Du        
   4358 ****       258.5000 316.7500 -59.5000 Du        
   4359 ****       258.5000 323.2500 -57.5000 Du        
   4360 ****       258.5000 323.2500 -57.2500 Du        
   4361 ****       258.5000 323.2500 -57.0000 Du        
   4362 ****       258.5000 323.5000 -57.7500 Du        
   4363 ****       258.5000 323.5000 -57.5000 Du        
   4364 ****       258.5000 323.5000 -57.2500 Du        
   4365 ****       258.5000 323.5000 -57.0000 Du        
   4366 ****       258.5000 323.5000 -56.7500 Du        
   4367 ****       258.5000 323.5000 -56.5000 Du        
   4368 ****       258.5000 323.7500 -57.7500 Du        
   4369 ****       258.5000 323.7500 -57.5000 Du        
   4370 ****       258.5000 323.7500 -57.2500 Du        
   4371 ****       258.5000 323.7500 -57.0000 Du        
   4372 ****       258.5000 323.7500 -56.7500 Du        
   4373 ****       258.5000 323.7500 -56.5000 Du        
   4374 ****       258.5000 324.0000 -58.0000 Du        
   4375 ****       258.5000 324.0000 -57.7500 Du        
   4376 ****       258.5000 324.0000 -57.5000 Du        
   4377 ****       258.5000 324.0000 -57.2500 Du        
   4378 ****       258.5000 324.0000 -57.0000 Du        
   4379 ****       258.5000 324.2500 -58.0000 Du        
   4380 ****       258.5000 324.2500 -57.7500 Du        
   4381 ****       258.7500 315.2500 -59.5000 Du        
   4382 ****       258.7500 315.2500 -59.2500 Du        
   4383 ****       258.7500 315.5000 -59.7500 Du        
   4384 ****       258.7500 315.5000 -59.5000 Du        
   4385 ****       258.7500 315.5000 -59.2500 Du        
   4386 ****       258.7500 315.5000 -59.0000 Du        
   4387 ****       258.7500 315.7500 -60.0000 Du        
   4388 ****       258.7500 315.7500 -59.7500 Du        
   4389 ****       258.7500 315.7500 -59.5000 Du        
   4390 ****       258.7500 315.7500 -59.2500 Du        
   4391 ****       258.7500 315.7500 -59.0000 Du        
   4392 ****       258.7500 315.7500 -58.7500 Du        
   4393 ****       258.7500 316.0000 -60.2500 Du        
   4394 ****       258.7500 316.0000 -60.0000 Du        
   4395 ****       258.7500 316.0000 -59.7500 Du        
   4396 ****       258.7500 316.0000 -59.5000 Du        
   4397 ****       258.7500 316.0000 -59.2500 Du        
   4398 ****       258.7500 316.0000 -59.0000 Du        
   4399 ****       258.7500 316.0000 -58.7500 Du        
   4400 ****       258.7500 316.2500 -60.5000 Du        
   4401 ****       258.7500 316.2500 -60.2500 Du        
   4402 ****       258.7500 316.2500 -60.0000 Du        
   4403 ****       258.7500 316.2500 -59.7500 Du        
   4404 ****       258.7500 316.2500 -59.5000 Du        
   4405 ****       258.7500 316.2500 -59.2500 Du        
   4406 ****       258.7500 316.2500 -59.0000 Du        
   4407 ****       258.7500 316.2500 -58.7500 Du        
   4408 ****       258.7500 316.5000 -60.7500 Du        
   4409 ****       258.7500 316.5000 -60.5000 Du        
   4410 ****       258.7500 316.5000 -60.2500 Du        
   4411 ****       258.7500 316.5000 -60.0000 Du        
   4412 ****       258.7500 316.5000 -59.7500 Du        
   4413 ****       258.7500 316.5000 -59.5000 Du        
   4414 ****       258.7500 316.5000 -59.2500 Du        
   4415 ****       258.7500 316.7500 -60.5000 Du        
   4416 ****       258.7500 316.7500 -60.2500 Du        
   4417 ****       258.7500 316.7500 -60.0000 Du        
   4418 ****       258.7500 316.7500 -59.7500 Du        
   4419 ****       258.7500 316.7500 -59.5000 Du        
   4420 ****       258.7500 323.2500 -57.5000 Du        
   4421 ****       258.7500 323.2500 -57.2500 Du        
   4422 ****       258.7500 323.2500 -57.0000 Du        
   4423 ****       258.7500 323.5000 -57.7500 Du        
   4424 ****       258.7500 323.5000 -57.5000 Du        
   4425 ****       258.7500 323.5000 -57.2500 Du        
   4426 ****       258.7500 323.5000 -57.0000 Du        
   4427 ****       258.7500 323.5000 -56.7500 Du        
   4428 ****       258.7500 323.5000 -56.5000 Du        
   4429 ****       258.7500 323.7500 -57.7500 Du        
   4430 ****       258.7500 323.7500 -57.5000 Du        
   4431 ****       258.7500 323.7500 -57.2500 Du        
   4432 ****       258.7500 323.7500 -57.0000 Du        
   4433 ****       258.7500 323.7500 -56.7500 Du        
   4434 ****       258.7500 323.7500 -56.5000 Du        
   4435 ****       258.7500 324.0000 -58.0000 Du        
   4436 ****       258.7500 324.0000 -57.7500 Du        
   4437 ****       258.7500 324.0000 -57.5000 Du        
   4438 ****       258.7500 324.0000 -57.2500 Du        
   4439 ****       258.7500 324.0000 -57.0000 Du        
   4440 ****       258.7500 324.2500 -58.0000 Du        
   4441 ****       258.7500 324.2500 -57.7500 Du        
   4442 ****       259.0000 315.2500 -59.7500 Du        
   4443 ****       259.0000 315.2500 -59.5000 Du        
   4444 ****       259.0000 315.2500 -59.2500 Du        
   4445 ****       259.0000 315.5000 -60.0000 Du        
   4446 ****       259.0000 315.5000 -59.7500 Du        
   4447 ****       259.0000 315.5000 -59.5000 Du        
   4448 ****       259.0000 315.5000 -59.2500 Du        
   4449 ****       259.0000 315.5000 -59.0000 Du        
   4450 ****       259.0000 315.7500 -60.2500 Du        
   4451 ****       259.0000 315.7500 -60.0000 Du        
   4452 ****       259.0000 315.7500 -59.7500 Du        
   4453 ****       259.0000 315.7500 -59.5000 Du        
   4454 ****       259.0000 315.7500 -59.2500 Du        
   4455 ****       259.0000 315.7500 -59.0000 Du        
   4456 ****       259.0000 315.7500 -58.7500 Du        
   4457 ****       259.0000 316.0000 -60.5000 Du        
   4458 ****       259.0000 316.0000 -60.2500 Du        
   4459 ****       259.0000 316.0000 -60.0000 Du        
   4460 ****       259.0000 316.0000 -59.7500 Du        
   4461 ****       259.0000 316.0000 -59.5000 Du        
   4462 ****       259.0000 316.0000 -59.2500 Du        
   4463 ****       259.0000 316.0000 -59.0000 Du        
   4464 ****       259.0000 316.0000 -58.7500 Du        
   4465 ****       259.0000 316.0000 -58.5000 Du        
   4466 ****       259.0000 316.2500 -60.7500 Du        
   4467 ****       259.0000 316.2500 -60.5000 Du        
   4468 ****       259.0000 316.2500 -60.2500 Du        
   4469 ****       259.0000 316.2500 -60.0000 Du        
   4470 ****       259.0000 316.2500 -59.7500 Du        
   4471 ****       259.0000 316.2500 -59.5000 Du        
   4472 ****       259.0000 316.2500 -59.2500 Du        
   4473 ****       259.0000 316.2500 -59.0000 Du        
   4474 ****       259.0000 316.2500 -58.7500 Du        
   4475 ****       259.0000 316.5000 -61.0000 Du        
   4476 ****       259.0000 316.5000 -60.7500 Du        
   4477 ****       259.0000 316.5000 -60.5000 Du        
   4478 ****       259.0000 316.5000 -60.2500 Du        
   4479 ****       259.0000 316.5000 -60.0000 Du        
   4480 ****       259.0000 316.5000 -59.7500 Du        
   4481 ****       259.0000 316.5000 -59.5000 Du        
   4482 ****       259.0000 316.5000 -59.2500 Du        
   4483 ****       259.0000 316.5000 -59.0000 Du        
   4484 ****       259.0000 316.7500 -60.7500 Du        
   4485 ****       259.0000 316.7500 -60.5000 Du        
   4486 ****       259.0000 316.7500 -60.2500 Du        
   4487 ****       259.0000 316.7500 -60.0000 Du        
   4488 ****       259.0000 316.7500 -59.7500 Du        
   4489 ****       259.0000 316.7500 -59.5000 Du        
   4490 ****       259.2500 315.0000 -59.5000 Du        
   4491 ****       259.2500 315.2500 -59.7500 Du        
   4492 ****       259.2500 315.2500 -59.5000 Du        
   4493 ****       259.2500 315.2500 -59.2500 Du        
   4494 ****       259.2500 315.5000 -60.0000 Du        
   4495 ****       259.2500 315.5000 -59.7500 Du        
   4496 ****       259.2500 315.5000 -59.5000 Du        
   4497 ****       259.2500 315.5000 -59.2500 Du        
   4498 ****       259.2500 315.5000 -59.0000 Du        
   4499 ****       259.2500 315.7500 -60.2500 Du        
   4500 ****       259.2500 315.7500 -60.0000 Du        
   4501 ****       259.2500 315.7500 -59.7500 Du        
   4502 ****       259.2500 315.7500 -59.5000 Du        
   4503 ****       259.2500 315.7500 -59.2500 Du        
   4504 ****       259.2500 315.7500 -59.0000 Du        
   4505 ****       259.2500 315.7500 -58.7500 Du        
   4506 ****       259.2500 316.0000 -60.7500 Du        
   4507 ****       259.2500 316.0000 -60.5000 Du        
   4508 ****       259.2500 316.0000 -60.2500 Du        
   4509 ****       259.2500 316.0000 -60.0000 Du        
   4510 ****       259.2500 316.0000 -59.7500 Du        
   4511 ****       259.2500 316.0000 -59.5000 Du        
   4512 ****       259.2500 316.0000 -59.2500 Du        
   4513 ****       259.2500 316.0000 -59.0000 Du        
   4514 ****       259.2500 316.0000 -58.7500 Du        
   4515 ****       259.2500 316.0000 -58.5000 Du        
   4516 ****       259.2500 316.2500 -61.0000 Du        
   4517 ****       259.2500 316.2500 -60.7500 Du        
   4518 ****       259.2500 316.2500 -60.5000 Du        
   4519 ****       259.2500 316.2500 -60.2500 Du        
   4520 ****       259.2500 316.2500 -60.0000 Du        
   4521 ****       259.2500 316.2500 -59.7500 Du        
   4522 ****       259.2500 316.2500 -59.5000 Du        
   4523 ****       259.2500 316.2500 -59.2500 Du        
   4524 ****       259.2500 316.2500 -59.0000 Du        
   4525 ****       259.2500 316.2500 -58.7500 Du        
   4526 ****       259.2500 316.5000 -61.2500 Du        
   4527 ****       259.2500 316.5000 -61.0000 Du        
   4528 ****       259.2500 316.5000 -60.7500 Du        
   4529 ****       259.2500 316.5000 -60.5000 Du        
   4530 ****       259.2500 316.5000 -60.2500 Du        
   4531 ****       259.2500 316.5000 -60.0000 Du        
   4532 ****       259.2500 316.5000 -59.7500 Du        
   4533 ****       259.2500 316.5000 -59.5000 Du        
   4534 ****       259.2500 316.5000 -59.2500 Du        
   4535 ****       259.2500 316.5000 -59.0000 Du        
   4536 ****       259.2500 316.7500 -61.2500 Du        
   4537 ****       259.2500 316.7500 -61.0000 Du        
   4538 ****       259.2500 316.7500 -60.7500 Du        
   4539 ****       259.2500 316.7500 -60.5000 Du        
   4540 ****       259.2500 316.7500 -60.2500 Du        
   4541 ****       259.2500 316.7500 -60.0000 Du        
   4542 ****       259.2500 316.7500 -59.7500 Du        
   4543 ****       259.2500 316.7500 -59.5000 Du        
   4544 ****       259.5000 314.7500 -59.5000 Du        
   4545 ****       259.5000 315.0000 -59.7500 Du        
   4546 ****       259.5000 315.0000 -59.5000 Du        
   4547 ****       259.5000 315.0000 -59.2500 Du        
   4548 ****       259.5000 315.2500 -60.0000 Du        
   4549 ****       259.5000 315.2500 -59.7500 Du        
   4550 ****       259.5000 315.2500 -59.5000 Du        
   4551 ****       259.5000 315.2500 -59.2500 Du        
   4552 ****       259.5000 315.2500 -59.0000 Du        
   4553 ****       259.5000 315.5000 -60.2500 Du        
   4554 ****       259.5000 315.5000 -60.0000 Du        
   4555 ****       259.5000 315.5000 -59.7500 Du        
   4556 ****       259.5000 315.5000 -59.5000 Du        
   4557 ****       259.5000 315.5000 -59.2500 Du        
   4558 ****       259.5000 315.5000 -59.0000 Du        
   4559 ****       259.5000 315.5000 -58.7500 Du        
   4560 ****       259.5000 315.7500 -60.5000 Du        
   4561 ****       259.5000 315.7500 -60.2500 Du        
   4562 ****       259.5000 315.7500 -60.0000 Du        
   4563 ****       259.5000 315.7500 -59.7500 Du        
   4564 ****       259.5000 315.7500 -59.5000 Du        
   4565 ****       259.5000 315.7500 -59.2500 Du        
   4566 ****       259.5000 315.7500 -59.0000 Du        
   4567 ****       259.5000 315.7500 -58.7500 Du        
   4568 ****       259.5000 315.7500 -58.5000 Du        
   4569 ****       259.5000 316.0000 -61.0000 Du        
   4570 ****       259.5000 316.0000 -60.7500 Du        
   4571 ****       259.5000 316.0000 -60.5000 Du        
   4572 ****       259.5000 316.0000 -60.2500 Du        
   4573 ****       259.5000 316.0000 -60.0000 Du        
   4574 ****       259.5000 316.0000 -59.7500 Du        
   4575 ****       259.5000 316.0000 -59.5000 Du        
   4576 ****       259.5000 316.0000 -59.2500 Du        
   4577 ****       259.5000 316.0000 -59.0000 Du        
   4578 ****       259.5000 316.0000 -58.7500 Du        
   4579 ****       259.5000 316.0000 -58.5000 Du        
   4580 ****       259.5000 316.0000 -58.2500 Du        
   4581 ****       259.5000 316.2500 -61.2500 Du        
   4582 ****       259.5000 316.2500 -61.0000 Du        
   4583 ****       259.5000 316.2500 -60.7500 Du        
   4584 ****       259.5000 316.2500 -60.5000 Du        
   4585 ****       259.5000 316.2500 -60.2500 Du        
   4586 ****       259.5000 316.2500 -60.0000 Du        
   4587 ****       259.5000 316.2500 -59.7500 Du        
   4588 ****       259.5000 316.2500 -59.5000 Du        
   4589 ****       259.5000 316.2500 -59.2500 Du        
   4590 ****       259.5000 316.2500 -59.0000 Du        
   4591 ****       259.5000 316.2500 -58.7500 Du        
   4592 ****       259.5000 316.2500 -58.5000 Du        
   4593 ****       259.5000 316.5000 -61.5000 Du        
   4594 ****       259.5000 316.5000 -61.2500 Du        
   4595 ****       259.5000 316.5000 -61.0000 Du        
   4596 ****       259.5000 316.5000 -60.7500 Du        
   4597 ****       259.5000 316.5000 -60.5000 Du        
   4598 ****       259.5000 316.5000 -60.2500 Du        
   4599 ****       259.5000 316.5000 -60.0000 Du        
   4600 ****       259.5000 316.5000 -59.7500 Du        
   4601 ****       259.5000 316.5000 -59.5000 Du        
   4602 ****       259.5000 316.5000 -59.2500 Du        
   4603 ****       259.5000 316.5000 -59.0000 Du        
   4604 ****       259.5000 316.7500 -61.7500 Du        
   4605 ****       259.5000 316.7500 -61.5000 Du        
   4606 ****       259.5000 316.7500 -61.2500 Du        
   4607 ****       259.5000 316.7500 -61.0000 Du        
   4608 ****       259.5000 316.7500 -60.7500 Du        
   4609 ****       259.5000 316.7500 -60.5000 Du        
   4610 ****       259.5000 316.7500 -60.2500 Du        
   4611 ****       259.5000 316.7500 -60.0000 Du        
   4612 ****       259.5000 316.7500 -59.7500 Du        
   4613 ****       259.5000 316.7500 -59.5000 Du        
   4614 ****       259.5000 316.7500 -59.2500 Du        
   4615 ****       259.7500 314.2500 -59.5000 Du        
   4616 ****       259.7500 314.5000 -59.7500 Du        
   4617 ****       259.7500 314.5000 -59.5000 Du        
   4618 ****       259.7500 314.7500 -59.7500 Du        
   4619 ****       259.7500 314.7500 -59.5000 Du        
   4620 ****       259.7500 314.7500 -59.2500 Du        
   4621 ****       259.7500 315.0000 -60.0000 Du        
   4622 ****       259.7500 315.0000 -59.7500 Du        
   4623 ****       259.7500 315.0000 -59.5000 Du        
   4624 ****       259.7500 315.0000 -59.2500 Du        
   4625 ****       259.7500 315.0000 -59.0000 Du        
   4626 ****       259.7500 315.2500 -60.2500 Du        
   4627 ****       259.7500 315.2500 -60.0000 Du        
   4628 ****       259.7500 315.2500 -59.7500 Du        
   4629 ****       259.7500 315.2500 -59.5000 Du        
   4630 ****       259.7500 315.2500 -59.2500 Du        
   4631 ****       259.7500 315.2500 -59.0000 Du        
   4632 ****       259.7500 315.5000 -60.5000 Du        
   4633 ****       259.7500 315.5000 -60.2500 Du        
   4634 ****       259.7500 315.5000 -60.0000 Du        
   4635 ****       259.7500 315.5000 -59.7500 Du        
   4636 ****       259.7500 315.5000 -59.5000 Du        
   4637 ****       259.7500 315.5000 -59.2500 Du        
   4638 ****       259.7500 315.5000 -59.0000 Du        
   4639 ****       259.7500 315.5000 -58.7500 Du        
   4640 ****       259.7500 315.7500 -60.7500 Du        
   4641 ****       259.7500 315.7500 -60.5000 Du        
   4642 ****       259.7500 315.7500 -60.2500 Du        
   4643 ****       259.7500 315.7500 -60.0000 Du        
   4644 ****       259.7500 315.7500 -59.7500 Du        
   4645 ****       259.7500 315.7500 -59.5000 Du        
   4646 ****       259.7500 315.7500 -59.2500 Du        
   4647 ****       259.7500 315.7500 -59.0000 Du        
   4648 ****       259.7500 315.7500 -58.7500 Du        
   4649 ****       259.7500 315.7500 -58.5000 Du        
   4650 ****       259.7500 315.7500 -58.2500 Du        
   4651 ****       259.7500 316.0000 -61.2500 Du        
   4652 ****       259.7500 316.0000 -61.0000 Du        
   4653 ****       259.7500 316.0000 -60.7500 Du        
   4654 ****       259.7500 316.0000 -60.5000 Du        
   4655 ****       259.7500 316.0000 -60.2500 Du        
   4656 ****       259.7500 316.0000 -60.0000 Du        
   4657 ****       259.7500 316.0000 -59.7500 Du        
   4658 ****       259.7500 316.0000 -59.5000 Du        
   4659 ****       259.7500 316.0000 -59.2500 Du        
   4660 ****       259.7500 316.0000 -59.0000 Du        
   4661 ****       259.7500 316.0000 -58.7500 Du        
   4662 ****       259.7500 316.0000 -58.5000 Du        
   4663 ****       259.7500 316.0000 -58.2500 Du        
   4664 ****       259.7500 316.0000 -58.0000 Du        
   4665 ****       259.7500 316.2500 -61.5000 Du        
   4666 ****       259.7500 316.2500 -61.2500 Du        
   4667 ****       259.7500 316.2500 -61.0000 Du        
   4668 ****       259.7500 316.2500 -60.7500 Du        
   4669 ****       259.7500 316.2500 -60.5000 Du        
   4670 ****       259.7500 316.2500 -60.2500 Du        
   4671 ****       259.7500 316.2500 -60.0000 Du        
   4672 ****       259.7500 316.2500 -59.7500 Du        
   4673 ****       259.7500 316.2500 -59.5000 Du        
   4674 ****       259.7500 316.2500 -59.2500 Du        
   4675 ****       259.7500 316.2500 -59.0000 Du        
   4676 ****       259.7500 316.2500 -58.7500 Du        
   4677 ****       259.7500 316.2500 -58.5000 Du        
   4678 ****       259.7500 316.2500 -58.2500 Du        
   4679 ****       259.7500 316.5000 -61.7500 Du        
   4680 ****       259.7500 316.5000 -61.5000 Du        
   4681 ****       259.7500 316.5000 -61.2500 Du        
   4682 ****       259.7500 316.5000 -61.0000 Du        
   4683 ****       259.7500 316.5000 -60.7500 Du        
   4684 ****       259.7500 316.5000 -60.5000 Du        
   4685 ****       259.7500 316.5000 -60.2500 Du        
   4686 ****       259.7500 316.5000 -60.0000 Du        
   4687 ****       259.7500 316.5000 -59.7500 Du        
   4688 ****       259.7500 316.5000 -59.5000 Du        
   4689 ****       259.7500 316.5000 -59.2500 Du        
   4690 ****       259.7500 316.5000 -59.0000 Du        
   4691 ****       259.7500 316.5000 -58.7500 Du        
   4692 ****       259.7500 316.7500 -61.5000 Du        
   4693 ****       259.7500 316.7500 -61.2500 Du        
   4694 ****       259.7500 316.7500 -61.0000 Du        
   4695 ****       259.7500 316.7500 -60.7500 Du        
   4696 ****       259.7500 316.7500 -60.5000 Du        
   4697 ****       259.7500 316.7500 -60.2500 Du        
   4698 ****       259.7500 316.7500 -60.0000 Du        
   4699 ****       259.7500 316.7500 -59.7500 Du        
   4700 ****       259.7500 316.7500 -59.5000 Du        
   4701 ****       259.7500 316.7500 -59.2500 Du        
   4702 ****       259.7500 316.7500 -59.0000 Du        
   4703 ****       260.0000 313.7500 -59.7500 Du        
   4704 ****       260.0000 313.7500 -59.5000 Du        
   4705 ****       260.0000 314.0000 -59.7500 Du        
   4706 ****       260.0000 314.0000 -59.5000 Du        
   4707 ****       260.0000 314.2500 -60.0000 Du        
   4708 ****       260.0000 314.2500 -59.7500 Du        
   4709 ****       260.0000 314.2500 -59.5000 Du        
   4710 ****       260.0000 314.2500 -59.2500 Du        
   4711 ****       260.0000 314.5000 -60.0000 Du        
   4712 ****       260.0000 314.5000 -59.7500 Du        
   4713 ****       260.0000 314.5000 -59.5000 Du        
   4714 ****       260.0000 314.5000 -59.2500 Du        
   4715 ****       260.0000 314.7500 -60.2500 Du        
   4716 ****       260.0000 314.7500 -60.0000 Du        
   4717 ****       260.0000 314.7500 -59.7500 Du        
   4718 ****       260.0000 314.7500 -59.5000 Du        
   4719 ****       260.0000 314.7500 -59.2500 Du        
   4720 ****       260.0000 314.7500 -59.0000 Du        
   4721 ****       260.0000 315.0000 -60.5000 Du        
   4722 ****       260.0000 315.0000 -60.2500 Du        
   4723 ****       260.0000 315.0000 -60.0000 Du        
   4724 ****       260.0000 315.0000 -59.7500 Du        
   4725 ****       260.0000 315.0000 -59.5000 Du        
   4726 ****       260.0000 315.0000 -59.2500 Du        
   4727 ****       260.0000 315.0000 -59.0000 Du        
   4728 ****       260.0000 315.2500 -60.7500 Du        
   4729 ****       260.0000 315.2500 -60.5000 Du        
   4730 ****       260.0000 315.2500 -60.2500 Du        
   4731 ****       260.0000 315.2500 -60.0000 Du        
   4732 ****       260.0000 315.2500 -59.7500 Du        
   4733 ****       260.0000 315.2500 -59.5000 Du        
   4734 ****       260.0000 315.2500 -59.2500 Du        
   4735 ****       260.0000 315.2500 -59.0000 Du        
   4736 ****       260.0000 315.2500 -58.7500 Du        
   4737 ****       260.0000 315.5000 -61.0000 Du        
   4738 ****       260.0000 315.5000 -60.7500 Du        
   4739 ****       260.0000 315.5000 -60.5000 Du        
   4740 ****       260.0000 315.5000 -60.2500 Du        
   4741 ****       260.0000 315.5000 -60.0000 Du        
   4742 ****       260.0000 315.5000 -59.7500 Du        
   4743 ****       260.0000 315.5000 -59.5000 Du        
   4744 ****       260.0000 315.5000 -59.2500 Du        
   4745 ****       260.0000 315.5000 -59.0000 Du        
   4746 ****       260.0000 315.5000 -58.7500 Du        
   4747 ****       260.0000 315.5000 -58.5000 Du        
   4748 ****       260.0000 315.5000 -58.2500 Du        
   4749 ****       260.0000 315.7500 -61.2500 Du        
   4750 ****       260.0000 315.7500 -61.0000 Du        
   4751 ****       260.0000 315.7500 -60.7500 Du        
   4752 ****       260.0000 315.7500 -60.5000 Du        
   4753 ****       260.0000 315.7500 -60.2500 Du        
   4754 ****       260.0000 315.7500 -60.0000 Du        
   4755 ****       260.0000 315.7500 -59.7500 Du        
   4756 ****       260.0000 315.7500 -59.5000 Du        
   4757 ****       260.0000 315.7500 -59.2500 Du        
   4758 ****       260.0000 315.7500 -59.0000 Du        
   4759 ****       260.0000 315.7500 -58.7500 Du        
   4760 ****       260.0000 315.7500 -58.5000 Du        
   4761 ****       260.0000 315.7500 -58.2500 Du        
   4762 ****       260.0000 315.7500 -58.0000 Du        
   4763 ****       260.0000 315.7500 -57.7500 Du        
   4764 ****       260.0000 316.0000 -61.5000 Du        
   4765 ****       260.0000 316.0000 -61.2500 Du        
   4766 ****       260.0000 316.0000 -61.0000 Du        
   4767 ****       260.0000 316.0000 -60.7500 Du        
   4768 ****       260.0000 316.0000 -60.5000 Du        
   4769 ****       260.0000 316.0000 -60.2500 Du        
   4770 ****       260.0000 316.0000 -60.0000 Du        
   4771 ****       260.0000 316.0000 -59.7500 Du        
   4772 ****       260.0000 316.0000 -59.5000 Du        
   4773 ****       260.0000 316.0000 -59.2500 Du        
   4774 ****       260.0000 316.0000 -59.0000 Du        
   4775 ****       260.0000 316.0000 -58.7500 Du        
   4776 ****       260.0000 316.0000 -58.5000 Du        
   4777 ****       260.0000 316.0000 -58.2500 Du        
   4778 ****       260.0000 316.0000 -58.0000 Du        
   4779 ****       260.0000 316.0000 -57.7500 Du        
   4780 ****       260.0000 316.0000 -57.5000 Du        
   4781 ****       260.0000 316.2500 -61.7500 Du        
   4782 ****       260.0000 316.2500 -61.5000 Du        
   4783 ****       260.0000 316.2500 -61.2500 Du        
   4784 ****       260.0000 316.2500 -61.0000 Du        
   4785 ****       260.0000 316.2500 -60.7500 Du        
   4786 ****       260.0000 316.2500 -60.5000 Du        
   4787 ****       260.0000 316.2500 -60.2500 Du        
   4788 ****       260.0000 316.2500 -60.0000 Du        
   4789 ****       260.0000 316.2500 -59.7500 Du        
   4790 ****       260.0000 316.2500 -59.5000 Du        
   4791 ****       260.0000 316.2500 -59.2500 Du        
   4792 ****       260.0000 316.2500 -59.0000 Du        
   4793 ****       260.0000 316.2500 -58.7500 Du        
   4794 ****       260.0000 316.2500 -58.5000 Du        
   4795 ****       260.0000 316.2500 -58.2500 Du        
   4796 ****       260.0000 316.2500 -58.0000 Du        
   4797 ****       260.0000 316.2500 -57.7500 Du        
   4798 ****       260.0000 316.5000 -61.5000 Du        
   4799 ****       260.0000 316.5000 -61.2500 Du        
   4800 ****       260.0000 316.5000 -61.0000 Du        
   4801 ****       260.0000 316.5000 -60.7500 Du        
   4802 ****       260.0000 316.5000 -60.5000 Du        
   4803 ****       260.0000 316.5000 -60.2500 Du        
   4804 ****       260.0000 316.5000 -60.0000 Du        
   4805 ****       260.0000 316.5000 -59.7500 Du        
   4806 ****       260.0000 316.5000 -59.5000 Du        
   4807 ****       260.0000 316.5000 -59.2500 Du        
   4808 ****       260.0000 316.5000 -59.0000 Du        
   4809 ****       260.0000 316.5000 -58.7500 Du        
   4810 ****       260.0000 316.5000 -58.5000 Du        
   4811 ****       260.0000 316.5000 -58.2500 Du        
   4812 ****       260.0000 316.7500 -61.2500 Du        
   4813 ****       260.0000 316.7500 -61.0000 Du        
   4814 ****       260.0000 316.7500 -60.7500 Du        
   4815 ****       260.0000 316.7500 -60.5000 Du        
   4816 ****       260.0000 316.7500 -60.2500 Du        
   4817 ****       260.0000 316.7500 -60.0000 Du        
   4818 ****       260.0000 316.7500 -59.7500 Du        
   4819 ****       260.0000 316.7500 -59.5000 Du        
   4820 ****       260.0000 316.7500 -59.2500 Du        
   4821 ****       260.0000 316.7500 -59.0000 Du        
   4822 ****       260.0000 316.7500 -58.7500 Du        
   4823 ****       260.0000 317.0000 -59.7500 Du        
   4824 ****       260.2500 313.0000 -60.0000 Du        
   4825 ****       260.2500 313.0000 -59.7500 Du        
   4826 ****       260.2500 313.2500 -60.0000 Du        
   4827 ****       260.2500 313.2500 -59.7500 Du        
   4828 ****       260.2500 313.2500 -59.5000 Du        
   4829 ****       260.2500 313.5000 -60.0000 Du        
   4830 ****       260.2500 313.5000 -59.7500 Du        
   4831 ****       260.2500 313.5000 -59.5000 Du        
   4832 ****       260.2500 313.5000 -59.2500 Du        
   4833 ****       260.2500 313.7500 -60.0000 Du        
   4834 ****       260.2500 313.7500 -59.7500 Du        
   4835 ****       260.2500 313.7500 -59.5000 Du        
   4836 ****       260.2500 313.7500 -59.2500 Du        
   4837 ****       260.2500 314.0000 -60.2500 Du        
   4838 ****       260.2500 314.0000 -60.0000 Du        
   4839 ****       260.2500 314.0000 -59.7500 Du        
   4840 ****       260.2500 314.0000 -59.5000 Du        
   4841 ****       260.2500 314.0000 -59.2500 Du        
   4842 ****       260.2500 314.2500 -60.2500 Du        
   4843 ****       260.2500 314.2500 -60.0000 Du        
   4844 ****       260.2500 314.2500 -59.7500 Du        
   4845 ****       260.2500 314.2500 -59.5000 Du        
   4846 ****       260.2500 314.2500 -59.2500 Du        
   4847 ****       260.2500 314.2500 -59.0000 Du        
   4848 ****       260.2500 314.5000 -60.2500 Du        
   4849 ****       260.2500 314.5000 -60.0000 Du        
   4850 ****       260.2500 314.5000 -59.7500 Du        
   4851 ****       260.2500 314.5000 -59.5000 Du        
   4852 ****       260.2500 314.5000 -59.2500 Du        
   4853 ****       260.2500 314.5000 -59.0000 Du        
   4854 ****       260.2500 314.7500 -60.5000 Du        
   4855 ****       260.2500 314.7500 -60.2500 Du        
   4856 ****       260.2500 314.7500 -60.0000 Du        
   4857 ****       260.2500 314.7500 -59.7500 Du        
   4858 ****       260.2500 314.7500 -59.5000 Du        
   4859 ****       260.2500 314.7500 -59.2500 Du        
   4860 ****       260.2500 314.7500 -59.0000 Du        
   4861 ****       260.2500 314.7500 -58.7500 Du        
   4862 ****       260.2500 315.0000 -60.7500 Du        
   4863 ****       260.2500 315.0000 -60.5000 Du        
   4864 ****       260.2500 315.0000 -60.2500 Du        
   4865 ****       260.2500 315.0000 -60.0000 Du        
   4866 ****       260.2500 315.0000 -59.7500 Du        
   4867 ****       260.2500 315.0000 -59.5000 Du        
   4868 ****       260.2500 315.0000 -59.2500 Du        
   4869 ****       260.2500 315.0000 -59.0000 Du        
   4870 ****       260.2500 315.0000 -58.7500 Du        
   4871 ****       260.2500 315.2500 -61.0000 Du        
   4872 ****       260.2500 315.2500 -60.7500 Du        
   4873 ****       260.2500 315.2500 -60.5000 Du        
   4874 ****       260.2500 315.2500 -60.2500 Du        
   4875 ****       260.2500 315.2500 -60.0000 Du        
   4876 ****       260.2500 315.2500 -59.7500 Du        
   4877 ****       260.2500 315.2500 -59.5000 Du        
   4878 ****       260.2500 315.2500 -59.2500 Du        
   4879 ****       260.2500 315.2500 -59.0000 Du        
   4880 ****       260.2500 315.2500 -58.7500 Du        
   4881 ****       260.2500 315.2500 -58.5000 Du        
   4882 ****       260.2500 315.5000 -61.2500 Du        
   4883 ****       260.2500 315.5000 -61.0000 Du        
   4884 ****       260.2500 315.5000 -60.7500 Du        
   4885 ****       260.2500 315.5000 -60.5000 Du        
   4886 ****       260.2500 315.5000 -60.2500 Du        
   4887 ****       260.2500 315.5000 -60.0000 Du        
   4888 ****       260.2500 315.5000 -59.7500 Du        
   4889 ****       260.2500 315.5000 -59.5000 Du        
   4890 ****       260.2500 315.5000 -59.2500 Du        
   4891 ****       260.2500 315.5000 -59.0000 Du        
   4892 ****       260.2500 315.5000 -58.7500 Du        
   4893 ****       260.2500 315.5000 -58.5000 Du        
   4894 ****       260.2500 315.5000 -58.2500 Du        
   4895 ****       260.2500 315.5000 -58.0000 Du        
   4896 ****       260.2500 315.7500 -61.5000 Du        
   4897 ****       260.2500 315.7500 -61.2500 Du        
   4898 ****       260.2500 315.7500 -61.0000 Du        
   4899 ****       260.2500 315.7500 -60.7500 Du        
   4900 ****       260.2500 315.7500 -60.5000 Du        
   4901 ****       260.2500 315.7500 -60.2500 Du        
   4902 ****       260.2500 315.7500 -60.0000 Du        
   4903 ****       260.2500 315.7500 -59.7500 Du        
   4904 ****       260.2500 315.7500 -59.5000 Du        
   4905 ****       260.2500 315.7500 -59.2500 Du        
   4906 ****       260.2500 315.7500 -59.0000 Du        
   4907 ****       260.2500 315.7500 -58.7500 Du        
   4908 ****       260.2500 315.7500 -58.5000 Du        
   4909 ****       260.2500 315.7500 -58.2500 Du        
   4910 ****       260.2500 315.7500 -58.0000 Du        
   4911 ****       260.2500 315.7500 -57.7500 Du        
   4912 ****       260.2500 315.7500 -57.5000 Du        
   4913 ****       260.2500 315.7500 -57.2500 Du        
   4914 ****       260.2500 316.0000 -61.7500 Du        
   4915 ****       260.2500 316.0000 -61.5000 Du        
   4916 ****       260.2500 316.0000 -61.2500 Du        
   4917 ****       260.2500 316.0000 -61.0000 Du        
   4918 ****       260.2500 316.0000 -60.7500 Du        
   4919 ****       260.2500 316.0000 -60.5000 Du        
   4920 ****       260.2500 316.0000 -60.2500 Du        
   4921 ****       260.2500 316.0000 -60.0000 Du        
   4922 ****       260.2500 316.0000 -59.7500 Du        
   4923 ****       260.2500 316.0000 -59.5000 Du        
   4924 ****       260.2500 316.0000 -59.2500 Du        
   4925 ****       260.2500 316.0000 -59.0000 Du        
   4926 ****       260.2500 316.0000 -58.7500 Du        
   4927 ****       260.2500 316.0000 -58.5000 Du        
   4928 ****       260.2500 316.0000 -58.2500 Du        
   4929 ****       260.2500 316.0000 -58.0000 Du        
   4930 ****       260.2500 316.0000 -57.7500 Du        
   4931 ****       260.2500 316.0000 -57.5000 Du        
   4932 ****       260.2500 316.0000 -57.2500 Du        
   4933 ****       260.2500 316.0000 -57.0000 Du        
   4934 ****       260.2500 316.2500 -61.7500 Du        
   4935 ****       260.2500 316.2500 -61.5000 Du        
   4936 ****       260.2500 316.2500 -61.2500 Du        
   4937 ****       260.2500 316.2500 -61.0000 Du        
   4938 ****       260.2500 316.2500 -60.7500 Du        
   4939 ****       260.2500 316.2500 -60.5000 Du        
   4940 ****       260.2500 316.2500 -60.2500 Du        
   4941 ****       260.2500 316.2500 -60.0000 Du        
   4942 ****       260.2500 316.2500 -59.7500 Du        
   4943 ****       260.2500 316.2500 -59.5000 Du        
   4944 ****       260.2500 316.2500 -59.2500 Du        
   4945 ****       260.2500 316.2500 -59.0000 Du        
   4946 ****       260.2500 316.2500 -58.7500 Du        
   4947 ****       260.2500 316.2500 -58.5000 Du        
   4948 ****       260.2500 316.2500 -58.2500 Du        
   4949 ****       260.2500 316.2500 -58.0000 Du        
   4950 ****       260.2500 316.2500 -57.7500 Du        
   4951 ****       260.2500 316.2500 -57.5000 Du        
   4952 ****       260.2500 316.5000 -61.2500 Du        
   4953 ****       260.2500 316.5000 -61.0000 Du        
   4954 ****       260.2500 316.5000 -60.7500 Du        
   4955 ****       260.2500 316.5000 -60.5000 Du        
   4956 ****       260.2500 316.5000 -60.2500 Du        
   4957 ****       260.2500 316.5000 -60.0000 Du        
   4958 ****       260.2500 316.5000 -59.7500 Du        
   4959 ****       260.2500 316.5000 -59.5000 Du        
   4960 ****       260.2500 316.5000 -59.2500 Du        
   4961 ****       260.2500 316.5000 -59.0000 Du        
   4962 ****       260.2500 316.5000 -58.7500 Du        
   4963 ****       260.2500 316.5000 -58.5000 Du        
   4964 ****       260.2500 316.5000 -58.2500 Du        
   4965 ****       260.2500 316.5000 -58.0000 Du        
   4966 ****       260.2500 316.7500 -60.7500 Du        
   4967 ****       260.2500 316.7500 -60.5000 Du        
   4968 ****       260.2500 316.7500 -60.2500 Du        
   4969 ****       260.2500 316.7500 -60.0000 Du        
   4970 ****       260.2500 316.7500 -59.7500 Du        
   4971 ****       260.2500 316.7500 -59.5000 Du        
   4972 ****       260.2500 316.7500 -59.2500 Du        
   4973 ****       260.2500 316.7500 -59.0000 Du        
   4974 ****       260.2500 316.7500 -58.7500 Du        
   4975 ****       260.2500 316.7500 -58.5000 Du        
   4976 ****       260.5000 312.7500 -60.2500 Du        
   4977 ****       260.5000 312.7500 -60.0000 Du        
   4978 ****       260.5000 312.7500 -59.7500 Du        
   4979 ****       260.5000 313.0000 -60.2500 Du        
   4980 ****       260.5000 313.0000 -60.0000 Du        
   4981 ****       260.5000 313.0000 -59.7500 Du        
   4982 ****       260.5000 313.0000 -59.5000 Du        
   4983 ****       260.5000 313.2500 -60.5000 Du        
   4984 ****       260.5000 313.2500 -60.2500 Du        
   4985 ****       260.5000 313.2500 -60.0000 Du        
   4986 ****       260.5000 313.2500 -59.7500 Du        
   4987 ****       260.5000 313.2500 -59.5000 Du        
   4988 ****       260.5000 313.2500 -59.2500 Du        
   4989 ****       260.5000 313.5000 -60.5000 Du        
   4990 ****       260.5000 313.5000 -60.2500 Du        
   4991 ****       260.5000 313.5000 -60.0000 Du        
   4992 ****       260.5000 313.5000 -59.7500 Du        
   4993 ****       260.5000 313.5000 -59.5000 Du        
   4994 ****       260.5000 313.5000 -59.2500 Du        
   4995 ****       260.5000 313.7500 -60.5000 Du        
   4996 ****       260.5000 313.7500 -60.2500 Du        
   4997 ****       260.5000 313.7500 -60.0000 Du        
   4998 ****       260.5000 313.7500 -59.7500 Du        
   4999 ****       260.5000 313.7500 -59.5000 Du        
   5000 ****       260.5000 313.7500 -59.2500 Du        
   5001 ****       260.5000 313.7500 -59.0000 Du        
   5002 ****       260.5000 314.0000 -60.5000 Du        
   5003 ****       260.5000 314.0000 -60.2500 Du        
   5004 ****       260.5000 314.0000 -60.0000 Du        
   5005 ****       260.5000 314.0000 -59.7500 Du        
   5006 ****       260.5000 314.0000 -59.5000 Du        
   5007 ****       260.5000 314.0000 -59.2500 Du        
   5008 ****       260.5000 314.0000 -59.0000 Du        
   5009 ****       260.5000 314.2500 -60.5000 Du        
   5010 ****       260.5000 314.2500 -60.2500 Du        
   5011 ****       260.5000 314.2500 -60.0000 Du        
   5012 ****       260.5000 314.2500 -59.7500 Du        
   5013 ****       260.5000 314.2500 -59.5000 Du        
   5014 ****       260.5000 314.2500 -59.2500 Du        
   5015 ****       260.5000 314.2500 -59.0000 Du        
   5016 ****       260.5000 314.5000 -60.7500 Du        
   5017 ****       260.5000 314.5000 -60.5000 Du        
   5018 ****       260.5000 314.5000 -60.2500 Du        
   5019 ****       260.5000 314.5000 -60.0000 Du        
   5020 ****       260.5000 314.5000 -59.7500 Du        
   5021 ****       260.5000 314.5000 -59.5000 Du        
   5022 ****       260.5000 314.5000 -59.2500 Du        
   5023 ****       260.5000 314.5000 -59.0000 Du        
   5024 ****       260.5000 314.5000 -58.7500 Du        
   5025 ****       260.5000 314.7500 -61.0000 Du        
   5026 ****       260.5000 314.7500 -60.7500 Du        
   5027 ****       260.5000 314.7500 -60.5000 Du        
   5028 ****       260.5000 314.7500 -60.2500 Du        
   5029 ****       260.5000 314.7500 -60.0000 Du        
   5030 ****       260.5000 314.7500 -59.7500 Du        
   5031 ****       260.5000 314.7500 -59.5000 Du        
   5032 ****       260.5000 314.7500 -59.2500 Du        
   5033 ****       260.5000 314.7500 -59.0000 Du        
   5034 ****       260.5000 314.7500 -58.7500 Du        
   5035 ****       260.5000 315.0000 -61.0000 Du        
   5036 ****       260.5000 315.0000 -60.7500 Du        
   5037 ****       260.5000 315.0000 -60.5000 Du        
   5038 ****       260.5000 315.0000 -60.2500 Du        
   5039 ****       260.5000 315.0000 -60.0000 Du        
   5040 ****       260.5000 315.0000 -59.7500 Du        
   5041 ****       260.5000 315.0000 -59.5000 Du        
   5042 ****       260.5000 315.0000 -59.2500 Du        
   5043 ****       260.5000 315.0000 -59.0000 Du        
   5044 ****       260.5000 315.0000 -58.7500 Du        
   5045 ****       260.5000 315.0000 -58.5000 Du        
   5046 ****       260.5000 315.0000 -58.2500 Du        
   5047 ****       260.5000 315.2500 -61.2500 Du        
   5048 ****       260.5000 315.2500 -61.0000 Du        
   5049 ****       260.5000 315.2500 -60.7500 Du        
   5050 ****       260.5000 315.2500 -60.5000 Du        
   5051 ****       260.5000 315.2500 -60.2500 Du        
   5052 ****       260.5000 315.2500 -60.0000 Du        
   5053 ****       260.5000 315.2500 -59.7500 Du        
   5054 ****       260.5000 315.2500 -59.5000 Du        
   5055 ****       260.5000 315.2500 -59.2500 Du        
   5056 ****       260.5000 315.2500 -59.0000 Du        
   5057 ****       260.5000 315.2500 -58.7500 Du        
   5058 ****       260.5000 315.2500 -58.5000 Du        
   5059 ****       260.5000 315.2500 -58.2500 Du        
   5060 ****       260.5000 315.2500 -58.0000 Du        
   5061 ****       260.5000 315.5000 -61.5000 Du        
   5062 ****       260.5000 315.5000 -61.2500 Du        
   5063 ****       260.5000 315.5000 -61.0000 Du        
   5064 ****       260.5000 315.5000 -60.7500 Du        
   5065 ****       260.5000 315.5000 -60.5000 Du        
   5066 ****       260.5000 315.5000 -60.2500 Du        
   5067 ****       260.5000 315.5000 -60.0000 Du        
   5068 ****       260.5000 315.5000 -59.7500 Du        
   5069 ****       260.5000 315.5000 -59.5000 Du        
   5070 ****       260.5000 315.5000 -59.2500 Du        
   5071 ****       260.5000 315.5000 -59.0000 Du        
   5072 ****       260.5000 315.5000 -58.7500 Du        
   5073 ****       260.5000 315.5000 -58.5000 Du        
   5074 ****       260.5000 315.5000 -58.2500 Du        
   5075 ****       260.5000 315.5000 -58.0000 Du        
   5076 ****       260.5000 315.5000 -57.7500 Du        
   5077 ****       260.5000 315.5000 -57.5000 Du        
   5078 ****       260.5000 315.7500 -61.5000 Du        
   5079 ****       260.5000 315.7500 -61.2500 Du        
   5080 ****       260.5000 315.7500 -61.0000 Du        
   5081 ****       260.5000 315.7500 -60.7500 Du        
   5082 ****       260.5000 315.7500 -60.5000 Du        
   5083 ****       260.5000 315.7500 -60.2500 Du        
   5084 ****       260.5000 315.7500 -60.0000 Du        
   5085 ****       260.5000 315.7500 -59.7500 Du        
   5086 ****       260.5000 315.7500 -59.5000 Du        
   5087 ****       260.5000 315.7500 -59.2500 Du        
   5088 ****       260.5000 315.7500 -59.0000 Du        
   5089 ****       260.5000 315.7500 -58.7500 Du        
   5090 ****       260.5000 315.7500 -58.5000 Du        
   5091 ****       260.5000 315.7500 -58.2500 Du        
   5092 ****       260.5000 315.7500 -58.0000 Du        
   5093 ****       260.5000 315.7500 -57.7500 Du        
   5094 ****       260.5000 315.7500 -57.5000 Du        
   5095 ****       260.5000 315.7500 -57.2500 Du        
   5096 ****       260.5000 315.7500 -57.0000 Du        
   5097 ****       260.5000 316.0000 -61.5000 Du        
   5098 ****       260.5000 316.0000 -61.2500 Du        
   5099 ****       260.5000 316.0000 -61.0000 Du        
   5100 ****       260.5000 316.0000 -60.7500 Du        
   5101 ****       260.5000 316.0000 -60.5000 Du        
   5102 ****       260.5000 316.0000 -60.2500 Du        
   5103 ****       260.5000 316.0000 -60.0000 Du        
   5104 ****       260.5000 316.0000 -59.7500 Du        
   5105 ****       260.5000 316.0000 -59.5000 Du        
   5106 ****       260.5000 316.0000 -59.2500 Du        
   5107 ****       260.5000 316.0000 -59.0000 Du        
   5108 ****       260.5000 316.0000 -58.7500 Du        
   5109 ****       260.5000 316.0000 -58.5000 Du        
   5110 ****       260.5000 316.0000 -58.2500 Du        
   5111 ****       260.5000 316.0000 -58.0000 Du        
   5112 ****       260.5000 316.0000 -57.7500 Du        
   5113 ****       260.5000 316.0000 -57.5000 Du        
   5114 ****       260.5000 316.0000 -57.2500 Du        
   5115 ****       260.5000 316.0000 -57.0000 Du        
   5116 ****       260.5000 316.0000 -56.7500 Du        
   5117 ****       260.5000 316.2500 -61.2500 Du        
   5118 ****       260.5000 316.2500 -61.0000 Du        
   5119 ****       260.5000 316.2500 -60.7500 Du        
   5120 ****       260.5000 316.2500 -60.5000 Du        
   5121 ****       260.5000 316.2500 -60.2500 Du        
   5122 ****       260.5000 316.2500 -60.0000 Du        
   5123 ****       260.5000 316.2500 -59.7500 Du        
   5124 ****       260.5000 316.2500 -59.5000 Du        
   5125 ****       260.5000 316.2500 -59.2500 Du        
   5126 ****       260.5000 316.2500 -59.0000 Du        
   5127 ****       260.5000 316.2500 -58.7500 Du        
   5128 ****       260.5000 316.2500 -58.5000 Du        
   5129 ****       260.5000 316.2500 -58.2500 Du        
   5130 ****       260.5000 316.2500 -58.0000 Du        
   5131 ****       260.5000 316.2500 -57.7500 Du        
   5132 ****       260.5000 316.2500 -57.5000 Du        
   5133 ****       260.5000 316.2500 -57.2500 Du        
   5134 ****       260.5000 316.2500 -57.0000 Du        
   5135 ****       260.5000 316.5000 -61.0000 Du        
   5136 ****       260.5000 316.5000 -60.7500 Du        
   5137 ****       260.5000 316.5000 -60.5000 Du        
   5138 ****       260.5000 316.5000 -60.2500 Du        
   5139 ****       260.5000 316.5000 -60.0000 Du        
   5140 ****       260.5000 316.5000 -59.7500 Du        
   5141 ****       260.5000 316.5000 -59.5000 Du        
   5142 ****       260.5000 316.5000 -59.2500 Du        
   5143 ****       260.5000 316.5000 -59.0000 Du        
   5144 ****       260.5000 316.5000 -58.7500 Du        
   5145 ****       260.5000 316.5000 -58.5000 Du        
   5146 ****       260.5000 316.5000 -58.2500 Du        
   5147 ****       260.5000 316.5000 -58.0000 Du        
   5148 ****       260.5000 316.5000 -57.7500 Du        
   5149 ****       260.5000 316.7500 -60.0000 Du        
   5150 ****       260.5000 316.7500 -59.7500 Du        
   5151 ****       260.5000 316.7500 -59.5000 Du        
   5152 ****       260.5000 316.7500 -59.2500 Du        
   5153 ****       260.5000 316.7500 -59.0000 Du        
   5154 ****       260.5000 316.7500 -58.7500 Du        
   5155 ****       260.5000 316.7500 -58.5000 Du        
   5156 ****       260.5000 316.7500 -58.2500 Du        
   5157 ****       260.7500 312.5000 -60.2500 Du        
   5158 ****       260.7500 312.5000 -60.0000 Du        
   5159 ****       260.7500 312.7500 -60.5000 Du        
   5160 ****       260.7500 312.7500 -60.2500 Du        
   5161 ****       260.7500 312.7500 -60.0000 Du        
   5162 ****       260.7500 312.7500 -59.7500 Du        
   5163 ****       260.7500 312.7500 -59.5000 Du        
   5164 ****       260.7500 313.0000 -60.5000 Du        
   5165 ****       260.7500 313.0000 -60.2500 Du        
   5166 ****       260.7500 313.0000 -60.0000 Du        
   5167 ****       260.7500 313.0000 -59.7500 Du        
   5168 ****       260.7500 313.0000 -59.5000 Du        
   5169 ****       260.7500 313.0000 -59.2500 Du        
   5170 ****       260.7500 313.2500 -60.5000 Du        
   5171 ****       260.7500 313.2500 -60.2500 Du        
   5172 ****       260.7500 313.2500 -60.0000 Du        
   5173 ****       260.7500 313.2500 -59.7500 Du        
   5174 ****       260.7500 313.2500 -59.5000 Du        
   5175 ****       260.7500 313.2500 -59.2500 Du        
   5176 ****       260.7500 313.2500 -59.0000 Du        
   5177 ****       260.7500 313.5000 -60.5000 Du        
   5178 ****       260.7500 313.5000 -60.2500 Du        
   5179 ****       260.7500 313.5000 -60.0000 Du        
   5180 ****       260.7500 313.5000 -59.7500 Du        
   5181 ****       260.7500 313.5000 -59.5000 Du        
   5182 ****       260.7500 313.5000 -59.2500 Du        
   5183 ****       260.7500 313.5000 -59.0000 Du        
   5184 ****       260.7500 313.7500 -60.7500 Du        
   5185 ****       260.7500 313.7500 -60.5000 Du        
   5186 ****       260.7500 313.7500 -60.2500 Du        
   5187 ****       260.7500 313.7500 -60.0000 Du        
   5188 ****       260.7500 313.7500 -59.7500 Du        
   5189 ****       260.7500 313.7500 -59.5000 Du        
   5190 ****       260.7500 313.7500 -59.2500 Du        
   5191 ****       260.7500 313.7500 -59.0000 Du        
   5192 ****       260.7500 313.7500 -58.7500 Du        
   5193 ****       260.7500 314.0000 -60.7500 Du        
   5194 ****       260.7500 314.0000 -60.5000 Du        
   5195 ****       260.7500 314.0000 -60.2500 Du        
   5196 ****       260.7500 314.0000 -60.0000 Du        
   5197 ****       260.7500 314.0000 -59.7500 Du        
   5198 ****       260.7500 314.0000 -59.5000 Du        
   5199 ****       260.7500 314.0000 -59.2500 Du        
   5200 ****       260.7500 314.0000 -59.0000 Du        
   5201 ****       260.7500 314.0000 -58.7500 Du        
   5202 ****       260.7500 314.2500 -60.7500 Du        
   5203 ****       260.7500 314.2500 -60.5000 Du        
   5204 ****       260.7500 314.2500 -60.2500 Du        
   5205 ****       260.7500 314.2500 -60.0000 Du        
   5206 ****       260.7500 314.2500 -59.7500 Du        
   5207 ****       260.7500 314.2500 -59.5000 Du        
   5208 ****       260.7500 314.2500 -59.2500 Du        
   5209 ****       260.7500 314.2500 -59.0000 Du        
   5210 ****       260.7500 314.2500 -58.7500 Du        
   5211 ****       260.7500 314.5000 -61.0000 Du        
   5212 ****       260.7500 314.5000 -60.7500 Du        
   5213 ****       260.7500 314.5000 -60.5000 Du        
   5214 ****       260.7500 314.5000 -60.2500 Du        
   5215 ****       260.7500 314.5000 -60.0000 Du        
   5216 ****       260.7500 314.5000 -59.7500 Du        
   5217 ****       260.7500 314.5000 -59.5000 Du        
   5218 ****       260.7500 314.5000 -59.2500 Du        
   5219 ****       260.7500 314.5000 -59.0000 Du        
   5220 ****       260.7500 314.5000 -58.7500 Du        
   5221 ****       260.7500 314.5000 -58.5000 Du        
   5222 ****       260.7500 314.7500 -61.0000 Du        
   5223 ****       260.7500 314.7500 -60.7500 Du        
   5224 ****       260.7500 314.7500 -60.5000 Du        
   5225 ****       260.7500 314.7500 -60.2500 Du        
   5226 ****       260.7500 314.7500 -60.0000 Du        
   5227 ****       260.7500 314.7500 -59.7500 Du        
   5228 ****       260.7500 314.7500 -59.5000 Du        
   5229 ****       260.7500 314.7500 -59.2500 Du        
   5230 ****       260.7500 314.7500 -59.0000 Du        
   5231 ****       260.7500 314.7500 -58.7500 Du        
   5232 ****       260.7500 314.7500 -58.5000 Du        
   5233 ****       260.7500 314.7500 -58.2500 Du        
   5234 ****       260.7500 315.0000 -61.2500 Du        
   5235 ****       260.7500 315.0000 -61.0000 Du        
   5236 ****       260.7500 315.0000 -60.7500 Du        
   5237 ****       260.7500 315.0000 -60.5000 Du        
   5238 ****       260.7500 315.0000 -60.2500 Du        
   5239 ****       260.7500 315.0000 -60.0000 Du        
   5240 ****       260.7500 315.0000 -59.7500 Du        
   5241 ****       260.7500 315.0000 -59.5000 Du        
   5242 ****       260.7500 315.0000 -59.2500 Du        
   5243 ****       260.7500 315.0000 -59.0000 Du        
   5244 ****       260.7500 315.0000 -58.7500 Du        
   5245 ****       260.7500 315.0000 -58.5000 Du        
   5246 ****       260.7500 315.0000 -58.2500 Du        
   5247 ****       260.7500 315.0000 -58.0000 Du        
   5248 ****       260.7500 315.2500 -61.2500 Du        
   5249 ****       260.7500 315.2500 -61.0000 Du        
   5250 ****       260.7500 315.2500 -60.7500 Du        
   5251 ****       260.7500 315.2500 -60.5000 Du        
   5252 ****       260.7500 315.2500 -60.2500 Du        
   5253 ****       260.7500 315.2500 -60.0000 Du        
   5254 ****       260.7500 315.2500 -59.7500 Du        
   5255 ****       260.7500 315.2500 -59.5000 Du        
   5256 ****       260.7500 315.2500 -59.2500 Du        
   5257 ****       260.7500 315.2500 -59.0000 Du        
   5258 ****       260.7500 315.2500 -58.7500 Du        
   5259 ****       260.7500 315.2500 -58.5000 Du        
   5260 ****       260.7500 315.2500 -58.2500 Du        
   5261 ****       260.7500 315.2500 -58.0000 Du        
   5262 ****       260.7500 315.2500 -57.7500 Du        
   5263 ****       260.7500 315.2500 -57.5000 Du        
   5264 ****       260.7500 315.5000 -61.5000 Du        
   5265 ****       260.7500 315.5000 -61.2500 Du        
   5266 ****       260.7500 315.5000 -61.0000 Du        
   5267 ****       260.7500 315.5000 -60.7500 Du        
   5268 ****       260.7500 315.5000 -60.5000 Du        
   5269 ****       260.7500 315.5000 -60.2500 Du        
   5270 ****       260.7500 315.5000 -60.0000 Du        
   5271 ****       260.7500 315.5000 -59.7500 Du        
   5272 ****       260.7500 315.5000 -59.5000 Du        
   5273 ****       260.7500 315.5000 -59.2500 Du        
   5274 ****       260.7500 315.5000 -59.0000 Du        
   5275 ****       260.7500 315.5000 -58.7500 Du        
   5276 ****       260.7500 315.5000 -58.5000 Du        
   5277 ****       260.7500 315.5000 -58.2500 Du        
   5278 ****       260.7500 315.5000 -58.0000 Du        
   5279 ****       260.7500 315.5000 -57.7500 Du        
   5280 ****       260.7500 315.5000 -57.5000 Du        
   5281 ****       260.7500 315.5000 -57.2500 Du        
   5282 ****       260.7500 315.5000 -57.0000 Du        
   5283 ****       260.7500 315.7500 -61.5000 Du        
   5284 ****       260.7500 315.7500 -61.2500 Du        
   5285 ****       260.7500 315.7500 -61.0000 Du        
   5286 ****       260.7500 315.7500 -60.7500 Du        
   5287 ****       260.7500 315.7500 -60.5000 Du        
   5288 ****       260.7500 315.7500 -60.2500 Du        
   5289 ****       260.7500 315.7500 -60.0000 Du        
   5290 ****       260.7500 315.7500 -59.7500 Du        
   5291 ****       260.7500 315.7500 -59.5000 Du        
   5292 ****       260.7500 315.7500 -59.2500 Du        
   5293 ****       260.7500 315.7500 -59.0000 Du        
   5294 ****       260.7500 315.7500 -58.7500 Du        
   5295 ****       260.7500 315.7500 -58.5000 Du        
   5296 ****       260.7500 315.7500 -58.2500 Du        
   5297 ****       260.7500 315.7500 -58.0000 Du        
   5298 ****       260.7500 315.7500 -57.7500 Du        
   5299 ****       260.7500 315.7500 -57.5000 Du        
   5300 ****       260.7500 315.7500 -57.2500 Du        
   5301 ****       260.7500 315.7500 -57.0000 Du        
   5302 ****       260.7500 315.7500 -56.7500 Du        
   5303 ****       260.7500 316.0000 -61.2500 Du        
   5304 ****       260.7500 316.0000 -61.0000 Du        
   5305 ****       260.7500 316.0000 -60.7500 Du        
   5306 ****       260.7500 316.0000 -60.5000 Du        
   5307 ****       260.7500 316.0000 -60.2500 Du        
   5308 ****       260.7500 316.0000 -60.0000 Du        
   5309 ****       260.7500 316.0000 -59.7500 Du        
   5310 ****       260.7500 316.0000 -59.5000 Du        
   5311 ****       260.7500 316.0000 -59.2500 Du        
   5312 ****       260.7500 316.0000 -59.0000 Du        
   5313 ****       260.7500 316.0000 -58.7500 Du        
   5314 ****       260.7500 316.0000 -58.5000 Du        
   5315 ****       260.7500 316.0000 -58.2500 Du        
   5316 ****       260.7500 316.0000 -58.0000 Du        
   5317 ****       260.7500 316.0000 -57.7500 Du        
   5318 ****       260.7500 316.0000 -57.5000 Du        
   5319 ****       260.7500 316.0000 -57.2500 Du        
   5320 ****       260.7500 316.0000 -57.0000 Du        
   5321 ****       260.7500 316.0000 -56.7500 Du        
   5322 ****       260.7500 316.2500 -61.0000 Du        
   5323 ****       260.7500 316.2500 -60.7500 Du        
   5324 ****       260.7500 316.2500 -60.5000 Du        
   5325 ****       260.7500 316.2500 -60.2500 Du        
   5326 ****       260.7500 316.2500 -60.0000 Du        
   5327 ****       260.7500 316.2500 -59.7500 Du        
   5328 ****       260.7500 316.2500 -59.5000 Du        
   5329 ****       260.7500 316.2500 -59.2500 Du        
   5330 ****       260.7500 316.2500 -59.0000 Du        
   5331 ****       260.7500 316.2500 -58.7500 Du        
   5332 ****       260.7500 316.2500 -58.5000 Du        
   5333 ****       260.7500 316.2500 -58.2500 Du        
   5334 ****       260.7500 316.2500 -58.0000 Du        
   5335 ****       260.7500 316.2500 -57.7500 Du        
   5336 ****       260.7500 316.2500 -57.5000 Du        
   5337 ****       260.7500 316.2500 -57.2500 Du        
   5338 ****       260.7500 316.2500 -57.0000 Du        
   5339 ****       260.7500 316.5000 -60.5000 Du        
   5340 ****       260.7500 316.5000 -60.2500 Du        
   5341 ****       260.7500 316.5000 -60.0000 Du        
   5342 ****       260.7500 316.5000 -59.7500 Du        
   5343 ****       260.7500 316.5000 -59.5000 Du        
   5344 ****       260.7500 316.5000 -59.2500 Du        
   5345 ****       260.7500 316.5000 -59.0000 Du        
   5346 ****       260.7500 316.5000 -58.7500 Du        
   5347 ****       260.7500 316.5000 -58.5000 Du        
   5348 ****       260.7500 316.5000 -58.2500 Du        
   5349 ****       260.7500 316.5000 -58.0000 Du        
   5350 ****       260.7500 316.5000 -57.7500 Du        
   5351 ****       260.7500 316.5000 -57.5000 Du        
   5352 ****       260.7500 316.5000 -57.2500 Du        
   5353 ****       260.7500 316.7500 -59.5000 Du        
   5354 ****       260.7500 316.7500 -59.2500 Du        
   5355 ****       260.7500 316.7500 -59.0000 Du        
   5356 ****       260.7500 316.7500 -58.7500 Du        
   5357 ****       260.7500 316.7500 -58.5000 Du        
   5358 ****       260.7500 316.7500 -58.2500 Du        
   5359 ****       260.7500 316.7500 -58.0000 Du        
   5360 ****       261.0000 312.5000 -60.2500 Du        
   5361 ****       261.0000 312.5000 -60.0000 Du        
   5362 ****       261.0000 312.7500 -60.5000 Du        
   5363 ****       261.0000 312.7500 -60.2500 Du        
   5364 ****       261.0000 312.7500 -60.0000 Du        
   5365 ****       261.0000 312.7500 -59.7500 Du        
   5366 ****       261.0000 312.7500 -59.5000 Du        
   5367 ****       261.0000 313.0000 -60.5000 Du        
   5368 ****       261.0000 313.0000 -60.2500 Du        
   5369 ****       261.0000 313.0000 -60.0000 Du        
   5370 ****       261.0000 313.0000 -59.7500 Du        
   5371 ****       261.0000 313.0000 -59.5000 Du        
   5372 ****       261.0000 313.0000 -59.2500 Du        
   5373 ****       261.0000 313.2500 -60.7500 Du        
   5374 ****       261.0000 313.2500 -60.5000 Du        
   5375 ****       261.0000 313.2500 -60.2500 Du        
   5376 ****       261.0000 313.2500 -60.0000 Du        
   5377 ****       261.0000 313.2500 -59.7500 Du        
   5378 ****       261.0000 313.2500 -59.5000 Du        
   5379 ****       261.0000 313.2500 -59.2500 Du        
   5380 ****       261.0000 313.2500 -59.0000 Du        
   5381 ****       261.0000 313.5000 -60.7500 Du        
   5382 ****       261.0000 313.5000 -60.5000 Du        
   5383 ****       261.0000 313.5000 -60.2500 Du        
   5384 ****       261.0000 313.5000 -60.0000 Du        
   5385 ****       261.0000 313.5000 -59.7500 Du        
   5386 ****       261.0000 313.5000 -59.5000 Du        
   5387 ****       261.0000 313.5000 -59.2500 Du        
   5388 ****       261.0000 313.5000 -59.0000 Du        
   5389 ****       261.0000 313.5000 -58.7500 Du        
   5390 ****       261.0000 313.7500 -60.7500 Du        
   5391 ****       261.0000 313.7500 -60.5000 Du        
   5392 ****       261.0000 313.7500 -60.2500 Du        
   5393 ****       261.0000 313.7500 -60.0000 Du        
   5394 ****       261.0000 313.7500 -59.7500 Du        
   5395 ****       261.0000 313.7500 -59.5000 Du        
   5396 ****       261.0000 313.7500 -59.2500 Du        
   5397 ****       261.0000 313.7500 -59.0000 Du        
   5398 ****       261.0000 313.7500 -58.7500 Du        
   5399 ****       261.0000 314.0000 -60.7500 Du        
   5400 ****       261.0000 314.0000 -60.5000 Du        
   5401 ****       261.0000 314.0000 -60.2500 Du        
   5402 ****       261.0000 314.0000 -60.0000 Du        
   5403 ****       261.0000 314.0000 -59.7500 Du        
   5404 ****       261.0000 314.0000 -59.5000 Du        
   5405 ****       261.0000 314.0000 -59.2500 Du        
   5406 ****       261.0000 314.0000 -59.0000 Du        
   5407 ****       261.0000 314.0000 -58.7500 Du        
   5408 ****       261.0000 314.0000 -58.5000 Du        
   5409 ****       261.0000 314.2500 -60.7500 Du        
   5410 ****       261.0000 314.2500 -60.5000 Du        
   5411 ****       261.0000 314.2500 -60.2500 Du        
   5412 ****       261.0000 314.2500 -60.0000 Du        
   5413 ****       261.0000 314.2500 -59.7500 Du        
   5414 ****       261.0000 314.2500 -59.5000 Du        
   5415 ****       261.0000 314.2500 -59.2500 Du        
   5416 ****       261.0000 314.2500 -59.0000 Du        
   5417 ****       261.0000 314.2500 -58.7500 Du        
   5418 ****       261.0000 314.2500 -58.5000 Du        
   5419 ****       261.0000 314.2500 -58.2500 Du        
   5420 ****       261.0000 314.5000 -61.0000 Du        
   5421 ****       261.0000 314.5000 -60.7500 Du        
   5422 ****       261.0000 314.5000 -60.5000 Du        
   5423 ****       261.0000 314.5000 -60.2500 Du        
   5424 ****       261.0000 314.5000 -60.0000 Du        
   5425 ****       261.0000 314.5000 -59.7500 Du        
   5426 ****       261.0000 314.5000 -59.5000 Du        
   5427 ****       261.0000 314.5000 -59.2500 Du        
   5428 ****       261.0000 314.5000 -59.0000 Du        
   5429 ****       261.0000 314.5000 -58.7500 Du        
   5430 ****       261.0000 314.5000 -58.5000 Du        
   5431 ****       261.0000 314.5000 -58.2500 Du        
   5432 ****       261.0000 314.7500 -61.0000 Du        
   5433 ****       261.0000 314.7500 -60.7500 Du        
   5434 ****       261.0000 314.7500 -60.5000 Du        
   5435 ****       261.0000 314.7500 -60.2500 Du        
   5436 ****       261.0000 314.7500 -60.0000 Du        
   5437 ****       261.0000 314.7500 -59.7500 Du        
   5438 ****       261.0000 314.7500 -59.5000 Du        
   5439 ****       261.0000 314.7500 -59.2500 Du        
   5440 ****       261.0000 314.7500 -59.0000 Du        
   5441 ****       261.0000 314.7500 -58.7500 Du        
   5442 ****       261.0000 314.7500 -58.5000 Du        
   5443 ****       261.0000 314.7500 -58.2500 Du        
   5444 ****       261.0000 314.7500 -58.0000 Du        
   5445 ****       261.0000 315.0000 -61.2500 Du        
   5446 ****       261.0000 315.0000 -61.0000 Du        
   5447 ****       261.0000 315.0000 -60.7500 Du        
   5448 ****       261.0000 315.0000 -60.5000 Du        
   5449 ****       261.0000 315.0000 -60.2500 Du        
   5450 ****       261.0000 315.0000 -60.0000 Du        
   5451 ****       261.0000 315.0000 -59.7500 Du        
   5452 ****       261.0000 315.0000 -59.5000 Du        
   5453 ****       261.0000 315.0000 -59.2500 Du        
   5454 ****       261.0000 315.0000 -59.0000 Du        
   5455 ****       261.0000 315.0000 -58.7500 Du        
   5456 ****       261.0000 315.0000 -58.5000 Du        
   5457 ****       261.0000 315.0000 -58.2500 Du        
   5458 ****       261.0000 315.0000 -58.0000 Du        
   5459 ****       261.0000 315.0000 -57.7500 Du        
   5460 ****       261.0000 315.2500 -61.2500 Du        
   5461 ****       261.0000 315.2500 -61.0000 Du        
   5462 ****       261.0000 315.2500 -60.7500 Du        
   5463 ****       261.0000 315.2500 -60.5000 Du        
   5464 ****       261.0000 315.2500 -60.2500 Du        
   5465 ****       261.0000 315.2500 -60.0000 Du        
   5466 ****       261.0000 315.2500 -59.7500 Du        
   5467 ****       261.0000 315.2500 -59.5000 Du        
   5468 ****       261.0000 315.2500 -59.2500 Du        
   5469 ****       261.0000 315.2500 -59.0000 Du        
   5470 ****       261.0000 315.2500 -58.7500 Du        
   5471 ****       261.0000 315.2500 -58.5000 Du        
   5472 ****       261.0000 315.2500 -58.2500 Du        
   5473 ****       261.0000 315.2500 -58.0000 Du        
   5474 ****       261.0000 315.2500 -57.7500 Du        
   5475 ****       261.0000 315.2500 -57.5000 Du        
   5476 ****       261.0000 315.2500 -57.2500 Du        
   5477 ****       261.0000 315.5000 -61.2500 Du        
   5478 ****       261.0000 315.5000 -61.0000 Du        
   5479 ****       261.0000 315.5000 -60.7500 Du        
   5480 ****       261.0000 315.5000 -60.5000 Du        
   5481 ****       261.0000 315.5000 -60.2500 Du        
   5482 ****       261.0000 315.5000 -60.0000 Du        
   5483 ****       261.0000 315.5000 -59.7500 Du        
   5484 ****       261.0000 315.5000 -59.5000 Du        
   5485 ****       261.0000 315.5000 -59.2500 Du        
   5486 ****       261.0000 315.5000 -59.0000 Du        
   5487 ****       261.0000 315.5000 -58.7500 Du        
   5488 ****       261.0000 315.5000 -58.5000 Du        
   5489 ****       261.0000 315.5000 -58.2500 Du        
   5490 ****       261.0000 315.5000 -58.0000 Du        
   5491 ****       261.0000 315.5000 -57.7500 Du        
   5492 ****       261.0000 315.5000 -57.5000 Du        
   5493 ****       261.0000 315.5000 -57.2500 Du        
   5494 ****       261.0000 315.5000 -57.0000 Du        
   5495 ****       261.0000 315.7500 -61.2500 Du        
   5496 ****       261.0000 315.7500 -61.0000 Du        
   5497 ****       261.0000 315.7500 -60.7500 Du        
   5498 ****       261.0000 315.7500 -60.5000 Du        
   5499 ****       261.0000 315.7500 -60.2500 Du        
   5500 ****       261.0000 315.7500 -60.0000 Du        
   5501 ****       261.0000 315.7500 -59.7500 Du        
   5502 ****       261.0000 315.7500 -59.5000 Du        
   5503 ****       261.0000 315.7500 -59.2500 Du        
   5504 ****       261.0000 315.7500 -59.0000 Du        
   5505 ****       261.0000 315.7500 -58.7500 Du        
   5506 ****       261.0000 315.7500 -58.5000 Du        
   5507 ****       261.0000 315.7500 -58.2500 Du        
   5508 ****       261.0000 315.7500 -58.0000 Du        
   5509 ****       261.0000 315.7500 -57.7500 Du        
   5510 ****       261.0000 315.7500 -57.5000 Du        
   5511 ****       261.0000 315.7500 -57.2500 Du        
   5512 ****       261.0000 315.7500 -57.0000 Du        
   5513 ****       261.0000 315.7500 -56.7500 Du        
   5514 ****       261.0000 316.0000 -61.0000 Du        
   5515 ****       261.0000 316.0000 -60.7500 Du        
   5516 ****       261.0000 316.0000 -60.5000 Du        
   5517 ****       261.0000 316.0000 -60.2500 Du        
   5518 ****       261.0000 316.0000 -60.0000 Du        
   5519 ****       261.0000 316.0000 -59.7500 Du        
   5520 ****       261.0000 316.0000 -59.5000 Du        
   5521 ****       261.0000 316.0000 -59.2500 Du        
   5522 ****       261.0000 316.0000 -59.0000 Du        
   5523 ****       261.0000 316.0000 -58.7500 Du        
   5524 ****       261.0000 316.0000 -58.5000 Du        
   5525 ****       261.0000 316.0000 -58.2500 Du        
   5526 ****       261.0000 316.0000 -58.0000 Du        
   5527 ****       261.0000 316.0000 -57.7500 Du        
   5528 ****       261.0000 316.0000 -57.5000 Du        
   5529 ****       261.0000 316.0000 -57.2500 Du        
   5530 ****       261.0000 316.0000 -57.0000 Du        
   5531 ****       261.0000 316.0000 -56.7500 Du        
   5532 ****       261.0000 316.0000 -56.5000 Du        
   5533 ****       261.0000 316.2500 -60.7500 Du        
   5534 ****       261.0000 316.2500 -60.5000 Du        
   5535 ****       261.0000 316.2500 -60.2500 Du        
   5536 ****       261.0000 316.2500 -60.0000 Du        
   5537 ****       261.0000 316.2500 -59.7500 Du        
   5538 ****       261.0000 316.2500 -59.5000 Du        
   5539 ****       261.0000 316.2500 -59.2500 Du        
   5540 ****       261.0000 316.2500 -59.0000 Du        
   5541 ****       261.0000 316.2500 -58.7500 Du        
   5542 ****       261.0000 316.2500 -58.5000 Du        
   5543 ****       261.0000 316.2500 -58.2500 Du        
   5544 ****       261.0000 316.2500 -58.0000 Du        
   5545 ****       261.0000 316.2500 -57.7500 Du        
   5546 ****       261.0000 316.2500 -57.5000 Du        
   5547 ****       261.0000 316.2500 -57.2500 Du        
   5548 ****       261.0000 316.2500 -57.0000 Du        
   5549 ****       261.0000 316.2500 -56.7500 Du        
   5550 ****       261.0000 316.5000 -60.0000 Du        
   5551 ****       261.0000 316.5000 -59.7500 Du        
   5552 ****       261.0000 316.5000 -59.5000 Du        
   5553 ****       261.0000 316.5000 -59.2500 Du        
   5554 ****       261.0000 316.5000 -59.0000 Du        
   5555 ****       261.0000 316.5000 -58.7500 Du        
   5556 ****       261.0000 316.5000 -58.5000 Du        
   5557 ****       261.0000 316.5000 -58.2500 Du        
   5558 ****       261.0000 316.5000 -58.0000 Du        
   5559 ****       261.0000 316.5000 -57.7500 Du        
   5560 ****       261.0000 316.5000 -57.5000 Du        
   5561 ****       261.0000 316.5000 -57.2500 Du        
   5562 ****       261.0000 316.7500 -58.5000 Du        
   5563 ****       261.0000 316.7500 -58.2500 Du        
   5564 ****       261.0000 316.7500 -58.0000 Du        
   5565 ****       261.0000 316.7500 -57.7500 Du        
   5566 ****       261.2500 312.5000 -60.2500 Du        
   5567 ****       261.2500 312.5000 -60.0000 Du        
   5568 ****       261.2500 312.7500 -60.5000 Du        
   5569 ****       261.2500 312.7500 -60.2500 Du        
   5570 ****       261.2500 312.7500 -60.0000 Du        
   5571 ****       261.2500 312.7500 -59.7500 Du        
   5572 ****       261.2500 312.7500 -59.5000 Du        
   5573 ****       261.2500 313.0000 -60.5000 Du        
   5574 ****       261.2500 313.0000 -60.2500 Du        
   5575 ****       261.2500 313.0000 -60.0000 Du        
   5576 ****       261.2500 313.0000 -59.7500 Du        
   5577 ****       261.2500 313.0000 -59.5000 Du        
   5578 ****       261.2500 313.0000 -59.2500 Du        
   5579 ****       261.2500 313.2500 -60.5000 Du        
   5580 ****       261.2500 313.2500 -60.2500 Du        
   5581 ****       261.2500 313.2500 -60.0000 Du        
   5582 ****       261.2500 313.2500 -59.7500 Du        
   5583 ****       261.2500 313.2500 -59.5000 Du        
   5584 ****       261.2500 313.2500 -59.2500 Du        
   5585 ****       261.2500 313.2500 -59.0000 Du        
   5586 ****       261.2500 313.5000 -60.7500 Du        
   5587 ****       261.2500 313.5000 -60.5000 Du        
   5588 ****       261.2500 313.5000 -60.2500 Du        
   5589 ****       261.2500 313.5000 -60.0000 Du        
   5590 ****       261.2500 313.5000 -59.7500 Du        
   5591 ****       261.2500 313.5000 -59.5000 Du        
   5592 ****       261.2500 313.5000 -59.2500 Du        
   5593 ****       261.2500 313.5000 -59.0000 Du        
   5594 ****       261.2500 313.5000 -58.7500 Du        
   5595 ****       261.2500 313.7500 -60.7500 Du        
   5596 ****       261.2500 313.7500 -60.5000 Du        
   5597 ****       261.2500 313.7500 -60.2500 Du        
   5598 ****       261.2500 313.7500 -60.0000 Du        
   5599 ****       261.2500 313.7500 -59.7500 Du        
   5600 ****       261.2500 313.7500 -59.5000 Du        
   5601 ****       261.2500 313.7500 -59.2500 Du        
   5602 ****       261.2500 313.7500 -59.0000 Du        
   5603 ****       261.2500 313.7500 -58.7500 Du        
   5604 ****       261.2500 313.7500 -58.5000 Du        
   5605 ****       261.2500 314.0000 -60.7500 Du        
   5606 ****       261.2500 314.0000 -60.5000 Du        
   5607 ****       261.2500 314.0000 -60.2500 Du        
   5608 ****       261.2500 314.0000 -60.0000 Du        
   5609 ****       261.2500 314.0000 -59.7500 Du        
   5610 ****       261.2500 314.0000 -59.5000 Du        
   5611 ****       261.2500 314.0000 -59.2500 Du        
   5612 ****       261.2500 314.0000 -59.0000 Du        
   5613 ****       261.2500 314.0000 -58.7500 Du        
   5614 ****       261.2500 314.0000 -58.5000 Du        
   5615 ****       261.2500 314.0000 -58.2500 Du        
   5616 ****       261.2500 314.2500 -60.7500 Du        
   5617 ****       261.2500 314.2500 -60.5000 Du        
   5618 ****       261.2500 314.2500 -60.2500 Du        
   5619 ****       261.2500 314.2500 -60.0000 Du        
   5620 ****       261.2500 314.2500 -59.7500 Du        
   5621 ****       261.2500 314.2500 -59.5000 Du        
   5622 ****       261.2500 314.2500 -59.2500 Du        
   5623 ****       261.2500 314.2500 -59.0000 Du        
   5624 ****       261.2500 314.2500 -58.7500 Du        
   5625 ****       261.2500 314.2500 -58.5000 Du        
   5626 ****       261.2500 314.2500 -58.2500 Du        
   5627 ****       261.2500 314.5000 -61.0000 Du        
   5628 ****       261.2500 314.5000 -60.7500 Du        
   5629 ****       261.2500 314.5000 -60.5000 Du        
   5630 ****       261.2500 314.5000 -60.2500 Du        
   5631 ****       261.2500 314.5000 -60.0000 Du        
   5632 ****       261.2500 314.5000 -59.7500 Du        
   5633 ****       261.2500 314.5000 -59.5000 Du        
   5634 ****       261.2500 314.5000 -59.2500 Du        
   5635 ****       261.2500 314.5000 -59.0000 Du        
   5636 ****       261.2500 314.5000 -58.7500 Du        
   5637 ****       261.2500 314.5000 -58.5000 Du        
   5638 ****       261.2500 314.5000 -58.2500 Du        
   5639 ****       261.2500 314.5000 -58.0000 Du        
   5640 ****       261.2500 314.7500 -61.0000 Du        
   5641 ****       261.2500 314.7500 -60.7500 Du        
   5642 ****       261.2500 314.7500 -60.5000 Du        
   5643 ****       261.2500 314.7500 -60.2500 Du        
   5644 ****       261.2500 314.7500 -60.0000 Du        
   5645 ****       261.2500 314.7500 -59.7500 Du        
   5646 ****       261.2500 314.7500 -59.5000 Du        
   5647 ****       261.2500 314.7500 -59.2500 Du        
   5648 ****       261.2500 314.7500 -59.0000 Du        
   5649 ****       261.2500 314.7500 -58.7500 Du        
   5650 ****       261.2500 314.7500 -58.5000 Du        
   5651 ****       261.2500 314.7500 -58.2500 Du        
   5652 ****       261.2500 314.7500 -58.0000 Du        
   5653 ****       261.2500 314.7500 -57.7500 Du        
   5654 ****       261.2500 315.0000 -61.2500 Du        
   5655 ****       261.2500 315.0000 -61.0000 Du        
   5656 ****       261.2500 315.0000 -60.7500 Du        
   5657 ****       261.2500 315.0000 -60.5000 Du        
   5658 ****       261.2500 315.0000 -60.2500 Du        
   5659 ****       261.2500 315.0000 -60.0000 Du        
   5660 ****       261.2500 315.0000 -59.7500 Du        
   5661 ****       261.2500 315.0000 -59.5000 Du        
   5662 ****       261.2500 315.0000 -59.2500 Du        
   5663 ****       261.2500 315.0000 -59.0000 Du        
   5664 ****       261.2500 315.0000 -58.7500 Du        
   5665 ****       261.2500 315.0000 -58.5000 Du        
   5666 ****       261.2500 315.0000 -58.2500 Du        
   5667 ****       261.2500 315.0000 -58.0000 Du        
   5668 ****       261.2500 315.0000 -57.7500 Du        
   5669 ****       261.2500 315.0000 -57.5000 Du        
   5670 ****       261.2500 315.0000 -57.2500 Du        
   5671 ****       261.2500 315.2500 -61.2500 Du        
   5672 ****       261.2500 315.2500 -61.0000 Du        
   5673 ****       261.2500 315.2500 -60.7500 Du        
   5674 ****       261.2500 315.2500 -60.5000 Du        
   5675 ****       261.2500 315.2500 -60.2500 Du        
   5676 ****       261.2500 315.2500 -60.0000 Du        
   5677 ****       261.2500 315.2500 -59.7500 Du        
   5678 ****       261.2500 315.2500 -59.5000 Du        
   5679 ****       261.2500 315.2500 -59.2500 Du        
   5680 ****       261.2500 315.2500 -59.0000 Du        
   5681 ****       261.2500 315.2500 -58.7500 Du        
   5682 ****       261.2500 315.2500 -58.5000 Du        
   5683 ****       261.2500 315.2500 -58.2500 Du        
   5684 ****       261.2500 315.2500 -58.0000 Du        
   5685 ****       261.2500 315.2500 -57.7500 Du        
   5686 ****       261.2500 315.2500 -57.5000 Du        
   5687 ****       261.2500 315.2500 -57.2500 Du        
   5688 ****       261.2500 315.2500 -57.0000 Du        
   5689 ****       261.2500 315.5000 -61.2500 Du        
   5690 ****       261.2500 315.5000 -61.0000 Du        
   5691 ****       261.2500 315.5000 -60.7500 Du        
   5692 ****       261.2500 315.5000 -60.5000 Du        
   5693 ****       261.2500 315.5000 -60.2500 Du        
   5694 ****       261.2500 315.5000 -60.0000 Du        
   5695 ****       261.2500 315.5000 -59.7500 Du        
   5696 ****       261.2500 315.5000 -59.5000 Du        
   5697 ****       261.2500 315.5000 -59.2500 Du        
   5698 ****       261.2500 315.5000 -59.0000 Du        
   5699 ****       261.2500 315.5000 -58.7500 Du        
   5700 ****       261.2500 315.5000 -58.5000 Du        
   5701 ****       261.2500 315.5000 -58.2500 Du        
   5702 ****       261.2500 315.5000 -58.0000 Du        
   5703 ****       261.2500 315.5000 -57.7500 Du        
   5704 ****       261.2500 315.5000 -57.5000 Du        
   5705 ****       261.2500 315.5000 -57.2500 Du        
   5706 ****       261.2500 315.5000 -57.0000 Du        
   5707 ****       261.2500 315.5000 -56.7500 Du        
   5708 ****       261.2500 315.7500 -61.0000 Du        
   5709 ****       261.2500 315.7500 -60.7500 Du        
   5710 ****       261.2500 315.7500 -60.5000 Du        
   5711 ****       261.2500 315.7500 -60.2500 Du        
   5712 ****       261.2500 315.7500 -60.0000 Du        
   5713 ****       261.2500 315.7500 -59.7500 Du        
   5714 ****       261.2500 315.7500 -59.5000 Du        
   5715 ****       261.2500 315.7500 -59.2500 Du        
   5716 ****       261.2500 315.7500 -59.0000 Du        
   5717 ****       261.2500 315.7500 -58.7500 Du        
   5718 ****       261.2500 315.7500 -58.5000 Du        
   5719 ****       261.2500 315.7500 -58.2500 Du        
   5720 ****       261.2500 315.7500 -58.0000 Du        
   5721 ****       261.2500 315.7500 -57.7500 Du        
   5722 ****       261.2500 315.7500 -57.5000 Du        
   5723 ****       261.2500 315.7500 -57.2500 Du        
   5724 ****       261.2500 315.7500 -57.0000 Du        
   5725 ****       261.2500 315.7500 -56.7500 Du        
   5726 ****       261.2500 316.0000 -60.7500 Du        
   5727 ****       261.2500 316.0000 -60.5000 Du        
   5728 ****       261.2500 316.0000 -60.2500 Du        
   5729 ****       261.2500 316.0000 -60.0000 Du        
   5730 ****       261.2500 316.0000 -59.7500 Du        
   5731 ****       261.2500 316.0000 -59.5000 Du        
   5732 ****       261.2500 316.0000 -59.2500 Du        
   5733 ****       261.2500 316.0000 -59.0000 Du        
   5734 ****       261.2500 316.0000 -58.7500 Du        
   5735 ****       261.2500 316.0000 -58.5000 Du        
   5736 ****       261.2500 316.0000 -58.2500 Du        
   5737 ****       261.2500 316.0000 -58.0000 Du        
   5738 ****       261.2500 316.0000 -57.7500 Du        
   5739 ****       261.2500 316.0000 -57.5000 Du        
   5740 ****       261.2500 316.0000 -57.2500 Du        
   5741 ****       261.2500 316.0000 -57.0000 Du        
   5742 ****       261.2500 316.0000 -56.7500 Du        
   5743 ****       261.2500 316.0000 -56.5000 Du        
   5744 ****       261.2500 316.2500 -60.2500 Du        
   5745 ****       261.2500 316.2500 -60.0000 Du        
   5746 ****       261.2500 316.2500 -59.7500 Du        
   5747 ****       261.2500 316.2500 -59.5000 Du        
   5748 ****       261.2500 316.2500 -59.2500 Du        
   5749 ****       261.2500 316.2500 -59.0000 Du        
   5750 ****       261.2500 316.2500 -58.7500 Du        
   5751 ****       261.2500 316.2500 -58.5000 Du        
   5752 ****       261.2500 316.2500 -58.2500 Du        
   5753 ****       261.2500 316.2500 -58.0000 Du        
   5754 ****       261.2500 316.2500 -57.7500 Du        
   5755 ****       261.2500 316.2500 -57.5000 Du        
   5756 ****       261.2500 316.2500 -57.2500 Du        
   5757 ****       261.2500 316.2500 -57.0000 Du        
   5758 ****       261.2500 316.2500 -56.7500 Du        
   5759 ****       261.2500 316.5000 -58.7500 Du        
   5760 ****       261.2500 316.5000 -58.5000 Du        
   5761 ****       261.2500 316.5000 -58.2500 Du        
   5762 ****       261.2500 316.5000 -58.0000 Du        
   5763 ****       261.2500 316.5000 -57.7500 Du        
   5764 ****       261.2500 316.5000 -57.5000 Du        
   5765 ****       261.2500 316.5000 -57.2500 Du        
   5766 ****       261.2500 316.5000 -57.0000 Du        
   5767 ****       261.5000 312.5000 -60.0000 Du        
   5768 ****       261.5000 312.7500 -60.2500 Du        
   5769 ****       261.5000 312.7500 -60.0000 Du        
   5770 ****       261.5000 312.7500 -59.7500 Du        
   5771 ****       261.5000 312.7500 -59.5000 Du        
   5772 ****       261.5000 313.0000 -60.5000 Du        
   5773 ****       261.5000 313.0000 -60.2500 Du        
   5774 ****       261.5000 313.0000 -60.0000 Du        
   5775 ****       261.5000 313.0000 -59.7500 Du        
   5776 ****       261.5000 313.0000 -59.5000 Du        
   5777 ****       261.5000 313.0000 -59.2500 Du        
   5778 ****       261.5000 313.2500 -60.5000 Du        
   5779 ****       261.5000 313.2500 -60.2500 Du        
   5780 ****       261.5000 313.2500 -60.0000 Du        
   5781 ****       261.5000 313.2500 -59.7500 Du        
   5782 ****       261.5000 313.2500 -59.5000 Du        
   5783 ****       261.5000 313.2500 -59.2500 Du        
   5784 ****       261.5000 313.2500 -59.0000 Du        
   5785 ****       261.5000 313.5000 -60.7500 Du        
   5786 ****       261.5000 313.5000 -60.5000 Du        
   5787 ****       261.5000 313.5000 -60.2500 Du        
   5788 ****       261.5000 313.5000 -60.0000 Du        
   5789 ****       261.5000 313.5000 -59.7500 Du        
   5790 ****       261.5000 313.5000 -59.5000 Du        
   5791 ****       261.5000 313.5000 -59.2500 Du        
   5792 ****       261.5000 313.5000 -59.0000 Du        
   5793 ****       261.5000 313.5000 -58.7500 Du        
   5794 ****       261.5000 313.7500 -60.7500 Du        
   5795 ****       261.5000 313.7500 -60.5000 Du        
   5796 ****       261.5000 313.7500 -60.2500 Du        
   5797 ****       261.5000 313.7500 -60.0000 Du        
   5798 ****       261.5000 313.7500 -59.7500 Du        
   5799 ****       261.5000 313.7500 -59.5000 Du        
   5800 ****       261.5000 313.7500 -59.2500 Du        
   5801 ****       261.5000 313.7500 -59.0000 Du        
   5802 ****       261.5000 313.7500 -58.7500 Du        
   5803 ****       261.5000 313.7500 -58.5000 Du        
   5804 ****       261.5000 314.0000 -60.7500 Du        
   5805 ****       261.5000 314.0000 -60.5000 Du        
   5806 ****       261.5000 314.0000 -60.2500 Du        
   5807 ****       261.5000 314.0000 -60.0000 Du        
   5808 ****       261.5000 314.0000 -59.7500 Du        
   5809 ****       261.5000 314.0000 -59.5000 Du        
   5810 ****       261.5000 314.0000 -59.2500 Du        
   5811 ****       261.5000 314.0000 -59.0000 Du        
   5812 ****       261.5000 314.0000 -58.7500 Du        
   5813 ****       261.5000 314.0000 -58.5000 Du        
   5814 ****       261.5000 314.0000 -58.2500 Du        
   5815 ****       261.5000 314.2500 -60.7500 Du        
   5816 ****       261.5000 314.2500 -60.5000 Du        
   5817 ****       261.5000 314.2500 -60.2500 Du        
   5818 ****       261.5000 314.2500 -60.0000 Du        
   5819 ****       261.5000 314.2500 -59.7500 Du        
   5820 ****       261.5000 314.2500 -59.5000 Du        
   5821 ****       261.5000 314.2500 -59.2500 Du        
   5822 ****       261.5000 314.2500 -59.0000 Du        
   5823 ****       261.5000 314.2500 -58.7500 Du        
   5824 ****       261.5000 314.2500 -58.5000 Du        
   5825 ****       261.5000 314.2500 -58.2500 Du        
   5826 ****       261.5000 314.2500 -58.0000 Du        
   5827 ****       261.5000 314.5000 -60.7500 Du        
   5828 ****       261.5000 314.5000 -60.5000 Du        
   5829 ****       261.5000 314.5000 -60.2500 Du        
   5830 ****       261.5000 314.5000 -60.0000 Du        
   5831 ****       261.5000 314.5000 -59.7500 Du        
   5832 ****       261.5000 314.5000 -59.5000 Du        
   5833 ****       261.5000 314.5000 -59.2500 Du        
   5834 ****       261.5000 314.5000 -59.0000 Du        
   5835 ****       261.5000 314.5000 -58.7500 Du        
   5836 ****       261.5000 314.5000 -58.5000 Du        
   5837 ****       261.5000 314.5000 -58.2500 Du        
   5838 ****       261.5000 314.5000 -58.0000 Du        
   5839 ****       261.5000 314.5000 -57.7500 Du        
   5840 ****       261.5000 314.7500 -61.0000 Du        
   5841 ****       261.5000 314.7500 -60.7500 Du        
   5842 ****       261.5000 314.7500 -60.5000 Du        
   5843 ****       261.5000 314.7500 -60.2500 Du        
   5844 ****       261.5000 314.7500 -60.0000 Du        
   5845 ****       261.5000 314.7500 -59.7500 Du        
   5846 ****       261.5000 314.7500 -59.5000 Du        
   5847 ****       261.5000 314.7500 -59.2500 Du        
   5848 ****       261.5000 314.7500 -59.0000 Du        
   5849 ****       261.5000 314.7500 -58.7500 Du        
   5850 ****       261.5000 314.7500 -58.5000 Du        
   5851 ****       261.5000 314.7500 -58.2500 Du        
   5852 ****       261.5000 314.7500 -58.0000 Du        
   5853 ****       261.5000 314.7500 -57.7500 Du        
   5854 ****       261.5000 314.7500 -57.5000 Du        
   5855 ****       261.5000 315.0000 -61.0000 Du        
   5856 ****       261.5000 315.0000 -60.7500 Du        
   5857 ****       261.5000 315.0000 -60.5000 Du        
   5858 ****       261.5000 315.0000 -60.2500 Du        
   5859 ****       261.5000 315.0000 -60.0000 Du        
   5860 ****       261.5000 315.0000 -59.7500 Du        
   5861 ****       261.5000 315.0000 -59.5000 Du        
   5862 ****       261.5000 315.0000 -59.2500 Du        
   5863 ****       261.5000 315.0000 -59.0000 Du        
   5864 ****       261.5000 315.0000 -58.7500 Du        
   5865 ****       261.5000 315.0000 -58.5000 Du        
   5866 ****       261.5000 315.0000 -58.2500 Du        
   5867 ****       261.5000 315.0000 -58.0000 Du        
   5868 ****       261.5000 315.0000 -57.7500 Du        
   5869 ****       261.5000 315.0000 -57.5000 Du        
   5870 ****       261.5000 315.0000 -57.2500 Du        
   5871 ****       261.5000 315.2500 -61.0000 Du        
   5872 ****       261.5000 315.2500 -60.7500 Du        
   5873 ****       261.5000 315.2500 -60.5000 Du        
   5874 ****       261.5000 315.2500 -60.2500 Du        
   5875 ****       261.5000 315.2500 -60.0000 Du        
   5876 ****       261.5000 315.2500 -59.7500 Du        
   5877 ****       261.5000 315.2500 -59.5000 Du        
   5878 ****       261.5000 315.2500 -59.2500 Du        
   5879 ****       261.5000 315.2500 -59.0000 Du        
   5880 ****       261.5000 315.2500 -58.7500 Du        
   5881 ****       261.5000 315.2500 -58.5000 Du        
   5882 ****       261.5000 315.2500 -58.2500 Du        
   5883 ****       261.5000 315.2500 -58.0000 Du        
   5884 ****       261.5000 315.2500 -57.7500 Du        
   5885 ****       261.5000 315.2500 -57.5000 Du        
   5886 ****       261.5000 315.2500 -57.2500 Du        
   5887 ****       261.5000 315.2500 -57.0000 Du        
   5888 ****       261.5000 315.5000 -61.0000 Du        
   5889 ****       261.5000 315.5000 -60.7500 Du        
   5890 ****       261.5000 315.5000 -60.5000 Du        
   5891 ****       261.5000 315.5000 -60.2500 Du        
   5892 ****       261.5000 315.5000 -60.0000 Du        
   5893 ****       261.5000 315.5000 -59.7500 Du        
   5894 ****       261.5000 315.5000 -59.5000 Du        
   5895 ****       261.5000 315.5000 -59.2500 Du        
   5896 ****       261.5000 315.5000 -59.0000 Du        
   5897 ****       261.5000 315.5000 -58.7500 Du        
   5898 ****       261.5000 315.5000 -58.5000 Du        
   5899 ****       261.5000 315.5000 -58.2500 Du        
   5900 ****       261.5000 315.5000 -58.0000 Du        
   5901 ****       261.5000 315.5000 -57.7500 Du        
   5902 ****       261.5000 315.5000 -57.5000 Du        
   5903 ****       261.5000 315.5000 -57.2500 Du        
   5904 ****       261.5000 315.5000 -57.0000 Du        
   5905 ****       261.5000 315.5000 -56.7500 Du        
   5906 ****       261.5000 315.7500 -60.7500 Du        
   5907 ****       261.5000 315.7500 -60.5000 Du        
   5908 ****       261.5000 315.7500 -60.2500 Du        
   5909 ****       261.5000 315.7500 -60.0000 Du        
   5910 ****       261.5000 315.7500 -59.7500 Du        
   5911 ****       261.5000 315.7500 -59.5000 Du        
   5912 ****       261.5000 315.7500 -59.2500 Du        
   5913 ****       261.5000 315.7500 -59.0000 Du        
   5914 ****       261.5000 315.7500 -58.7500 Du        
   5915 ****       261.5000 315.7500 -58.5000 Du        
   5916 ****       261.5000 315.7500 -58.2500 Du        
   5917 ****       261.5000 315.7500 -58.0000 Du        
   5918 ****       261.5000 315.7500 -57.7500 Du        
   5919 ****       261.5000 315.7500 -57.5000 Du        
   5920 ****       261.5000 315.7500 -57.2500 Du        
   5921 ****       261.5000 315.7500 -57.0000 Du        
   5922 ****       261.5000 315.7500 -56.7500 Du        
   5923 ****       261.5000 316.0000 -60.5000 Du        
   5924 ****       261.5000 316.0000 -60.2500 Du        
   5925 ****       261.5000 316.0000 -60.0000 Du        
   5926 ****       261.5000 316.0000 -59.7500 Du        
   5927 ****       261.5000 316.0000 -59.5000 Du        
   5928 ****       261.5000 316.0000 -59.2500 Du        
   5929 ****       261.5000 316.0000 -59.0000 Du        
   5930 ****       261.5000 316.0000 -58.7500 Du        
   5931 ****       261.5000 316.0000 -58.5000 Du        
   5932 ****       261.5000 316.0000 -58.2500 Du        
   5933 ****       261.5000 316.0000 -58.0000 Du        
   5934 ****       261.5000 316.0000 -57.7500 Du        
   5935 ****       261.5000 316.0000 -57.5000 Du        
   5936 ****       261.5000 316.0000 -57.2500 Du        
   5937 ****       261.5000 316.0000 -57.0000 Du        
   5938 ****       261.5000 316.0000 -56.7500 Du        
   5939 ****       261.5000 316.2500 -59.2500 Du        
   5940 ****       261.5000 316.2500 -59.0000 Du        
   5941 ****       261.5000 316.2500 -58.7500 Du        
   5942 ****       261.5000 316.2500 -58.5000 Du        
   5943 ****       261.5000 316.2500 -58.2500 Du        
   5944 ****       261.5000 316.2500 -58.0000 Du        
   5945 ****       261.5000 316.2500 -57.7500 Du        
   5946 ****       261.5000 316.2500 -57.5000 Du        
   5947 ****       261.5000 316.2500 -57.2500 Du        
   5948 ****       261.5000 316.2500 -57.0000 Du        
   5949 ****       261.5000 316.2500 -56.7500 Du        
   5950 ****       261.5000 316.5000 -57.5000 Du        
   5951 ****       261.5000 316.5000 -57.2500 Du        
   5952 ****       261.5000 316.5000 -57.0000 Du        
   5953 ****       261.7500 312.5000 -60.0000 Du        
   5954 ****       261.7500 312.7500 -60.2500 Du        
   5955 ****       261.7500 312.7500 -60.0000 Du        
   5956 ****       261.7500 312.7500 -59.7500 Du        
   5957 ****       261.7500 312.7500 -59.5000 Du        
   5958 ****       261.7500 313.0000 -60.5000 Du        
   5959 ****       261.7500 313.0000 -60.2500 Du        
   5960 ****       261.7500 313.0000 -60.0000 Du        
   5961 ****       261.7500 313.0000 -59.7500 Du        
   5962 ****       261.7500 313.0000 -59.5000 Du        
   5963 ****       261.7500 313.0000 -59.2500 Du        
   5964 ****       261.7500 313.2500 -60.5000 Du        
   5965 ****       261.7500 313.2500 -60.2500 Du        
   5966 ****       261.7500 313.2500 -60.0000 Du        
   5967 ****       261.7500 313.2500 -59.7500 Du        
   5968 ****       261.7500 313.2500 -59.5000 Du        
   5969 ****       261.7500 313.2500 -59.2500 Du        
   5970 ****       261.7500 313.2500 -59.0000 Du        
   5971 ****       261.7500 313.5000 -60.5000 Du        
   5972 ****       261.7500 313.5000 -60.2500 Du        
   5973 ****       261.7500 313.5000 -60.0000 Du        
   5974 ****       261.7500 313.5000 -59.7500 Du        
   5975 ****       261.7500 313.5000 -59.5000 Du        
   5976 ****       261.7500 313.5000 -59.2500 Du        
   5977 ****       261.7500 313.5000 -59.0000 Du        
   5978 ****       261.7500 313.5000 -58.7500 Du        
   5979 ****       261.7500 313.5000 -58.5000 Du        
   5980 ****       261.7500 313.7500 -60.7500 Du        
   5981 ****       261.7500 313.7500 -60.5000 Du        
   5982 ****       261.7500 313.7500 -60.2500 Du        
   5983 ****       261.7500 313.7500 -60.0000 Du        
   5984 ****       261.7500 313.7500 -59.7500 Du        
   5985 ****       261.7500 313.7500 -59.5000 Du        
   5986 ****       261.7500 313.7500 -59.2500 Du        
   5987 ****       261.7500 313.7500 -59.0000 Du        
   5988 ****       261.7500 313.7500 -58.7500 Du        
   5989 ****       261.7500 313.7500 -58.5000 Du        
   5990 ****       261.7500 313.7500 -58.2500 Du        
   5991 ****       261.7500 314.0000 -60.7500 Du        
   5992 ****       261.7500 314.0000 -60.5000 Du        
   5993 ****       261.7500 314.0000 -60.2500 Du        
   5994 ****       261.7500 314.0000 -60.0000 Du        
   5995 ****       261.7500 314.0000 -59.7500 Du        
   5996 ****       261.7500 314.0000 -59.5000 Du        
   5997 ****       261.7500 314.0000 -59.2500 Du        
   5998 ****       261.7500 314.0000 -59.0000 Du        
   5999 ****       261.7500 314.0000 -58.7500 Du        
   6000 ****       261.7500 314.0000 -58.5000 Du        
   6001 ****       261.7500 314.0000 -58.2500 Du        
   6002 ****       261.7500 314.0000 -58.0000 Du        
   6003 ****       261.7500 314.2500 -60.7500 Du        
   6004 ****       261.7500 314.2500 -60.5000 Du        
   6005 ****       261.7500 314.2500 -60.2500 Du        
   6006 ****       261.7500 314.2500 -60.0000 Du        
   6007 ****       261.7500 314.2500 -59.7500 Du        
   6008 ****       261.7500 314.2500 -59.5000 Du        
   6009 ****       261.7500 314.2500 -59.2500 Du        
   6010 ****       261.7500 314.2500 -59.0000 Du        
   6011 ****       261.7500 314.2500 -58.7500 Du        
   6012 ****       261.7500 314.2500 -58.5000 Du        
   6013 ****       261.7500 314.2500 -58.2500 Du        
   6014 ****       261.7500 314.2500 -58.0000 Du        
   6015 ****       261.7500 314.2500 -57.7500 Du        
   6016 ****       261.7500 314.5000 -60.7500 Du        
   6017 ****       261.7500 314.5000 -60.5000 Du        
   6018 ****       261.7500 314.5000 -60.2500 Du        
   6019 ****       261.7500 314.5000 -60.0000 Du        
   6020 ****       261.7500 314.5000 -59.7500 Du        
   6021 ****       261.7500 314.5000 -59.5000 Du        
   6022 ****       261.7500 314.5000 -59.2500 Du        
   6023 ****       261.7500 314.5000 -59.0000 Du        
   6024 ****       261.7500 314.5000 -58.7500 Du        
   6025 ****       261.7500 314.5000 -58.5000 Du        
   6026 ****       261.7500 314.5000 -58.2500 Du        
   6027 ****       261.7500 314.5000 -58.0000 Du        
   6028 ****       261.7500 314.5000 -57.7500 Du        
   6029 ****       261.7500 314.5000 -57.5000 Du        
   6030 ****       261.7500 314.7500 -61.0000 Du        
   6031 ****       261.7500 314.7500 -60.7500 Du        
   6032 ****       261.7500 314.7500 -60.5000 Du        
   6033 ****       261.7500 314.7500 -60.2500 Du        
   6034 ****       261.7500 314.7500 -60.0000 Du        
   6035 ****       261.7500 314.7500 -59.7500 Du        
   6036 ****       261.7500 314.7500 -59.5000 Du        
   6037 ****       261.7500 314.7500 -59.2500 Du        
   6038 ****       261.7500 314.7500 -59.0000 Du        
   6039 ****       261.7500 314.7500 -58.7500 Du        
   6040 ****       261.7500 314.7500 -58.5000 Du        
   6041 ****       261.7500 314.7500 -58.2500 Du        
   6042 ****       261.7500 314.7500 -58.0000 Du        
   6043 ****       261.7500 314.7500 -57.7500 Du        
   6044 ****       261.7500 314.7500 -57.5000 Du        
   6045 ****       261.7500 314.7500 -57.2500 Du        
   6046 ****       261.7500 315.0000 -61.0000 Du        
   6047 ****       261.7500 315.0000 -60.7500 Du        
   6048 ****       261.7500 315.0000 -60.5000 Du        
   6049 ****       261.7500 315.0000 -60.2500 Du        
   6050 ****       261.7500 315.0000 -60.0000 Du        
   6051 ****       261.7500 315.0000 -59.7500 Du        
   6052 ****       261.7500 315.0000 -59.5000 Du        
   6053 ****       261.7500 315.0000 -59.2500 Du        
   6054 ****       261.7500 315.0000 -59.0000 Du        
   6055 ****       261.7500 315.0000 -58.7500 Du        
   6056 ****       261.7500 315.0000 -58.5000 Du        
   6057 ****       261.7500 315.0000 -58.2500 Du        
   6058 ****       261.7500 315.0000 -58.0000 Du        
   6059 ****       261.7500 315.0000 -57.7500 Du        
   6060 ****       261.7500 315.0000 -57.5000 Du        
   6061 ****       261.7500 315.0000 -57.2500 Du        
   6062 ****       261.7500 315.0000 -57.0000 Du        
   6063 ****       261.7500 315.2500 -60.7500 Du        
   6064 ****       261.7500 315.2500 -60.5000 Du        
   6065 ****       261.7500 315.2500 -60.2500 Du        
   6066 ****       261.7500 315.2500 -60.0000 Du        
   6067 ****       261.7500 315.2500 -59.7500 Du        
   6068 ****       261.7500 315.2500 -59.5000 Du        
   6069 ****       261.7500 315.2500 -59.2500 Du        
   6070 ****       261.7500 315.2500 -59.0000 Du        
   6071 ****       261.7500 315.2500 -58.7500 Du        
   6072 ****       261.7500 315.2500 -58.5000 Du        
   6073 ****       261.7500 315.2500 -58.2500 Du        
   6074 ****       261.7500 315.2500 -58.0000 Du        
   6075 ****       261.7500 315.2500 -57.7500 Du        
   6076 ****       261.7500 315.2500 -57.5000 Du        
   6077 ****       261.7500 315.2500 -57.2500 Du        
   6078 ****       261.7500 315.2500 -57.0000 Du        
   6079 ****       261.7500 315.5000 -60.7500 Du        
   6080 ****       261.7500 315.5000 -60.5000 Du        
   6081 ****       261.7500 315.5000 -60.2500 Du        
   6082 ****       261.7500 315.5000 -60.0000 Du        
   6083 ****       261.7500 315.5000 -59.7500 Du        
   6084 ****       261.7500 315.5000 -59.5000 Du        
   6085 ****       261.7500 315.5000 -59.2500 Du        
   6086 ****       261.7500 315.5000 -59.0000 Du        
   6087 ****       261.7500 315.5000 -58.7500 Du        
   6088 ****       261.7500 315.5000 -58.5000 Du        
   6089 ****       261.7500 315.5000 -58.2500 Du        
   6090 ****       261.7500 315.5000 -58.0000 Du        
   6091 ****       261.7500 315.5000 -57.7500 Du        
   6092 ****       261.7500 315.5000 -57.5000 Du        
   6093 ****       261.7500 315.5000 -57.2500 Du        
   6094 ****       261.7500 315.5000 -57.0000 Du        
   6095 ****       261.7500 315.7500 -60.5000 Du        
   6096 ****       261.7500 315.7500 -60.2500 Du        
   6097 ****       261.7500 315.7500 -60.0000 Du        
   6098 ****       261.7500 315.7500 -59.7500 Du        
   6099 ****       261.7500 315.7500 -59.5000 Du        
   6100 ****       261.7500 315.7500 -59.2500 Du        
   6101 ****       261.7500 315.7500 -59.0000 Du        
   6102 ****       261.7500 315.7500 -58.7500 Du        
   6103 ****       261.7500 315.7500 -58.5000 Du        
   6104 ****       261.7500 315.7500 -58.2500 Du        
   6105 ****       261.7500 315.7500 -58.0000 Du        
   6106 ****       261.7500 315.7500 -57.7500 Du        
   6107 ****       261.7500 315.7500 -57.5000 Du        
   6108 ****       261.7500 315.7500 -57.2500 Du        
   6109 ****       261.7500 315.7500 -57.0000 Du        
   6110 ****       261.7500 315.7500 -56.7500 Du        
   6111 ****       261.7500 316.0000 -60.0000 Du        
   6112 ****       261.7500 316.0000 -58.2500 Du        
   6113 ****       261.7500 316.0000 -58.0000 Du        
   6114 ****       261.7500 316.0000 -57.7500 Du        
   6115 ****       261.7500 316.0000 -57.5000 Du        
   6116 ****       261.7500 316.0000 -57.2500 Du        
   6117 ****       261.7500 316.0000 -57.0000 Du        
   6118 ****       261.7500 316.0000 -56.7500 Du        
   6119 ****       261.7500 316.2500 -57.2500 Du        
   6120 ****       261.7500 316.2500 -57.0000 Du        
   6121 ****       261.7500 316.2500 -56.7500 Du        
   6122 ****       262.0000 312.7500 -60.2500 Du        
   6123 ****       262.0000 312.7500 -60.0000 Du        
   6124 ****       262.0000 312.7500 -59.7500 Du        
   6125 ****       262.0000 312.7500 -59.5000 Du        
   6126 ****       262.0000 313.0000 -60.2500 Du        
   6127 ****       262.0000 313.0000 -60.0000 Du        
   6128 ****       262.0000 313.0000 -59.7500 Du        
   6129 ****       262.0000 313.0000 -59.5000 Du        
   6130 ****       262.0000 313.0000 -59.2500 Du        
   6131 ****       262.0000 313.2500 -60.5000 Du        
   6132 ****       262.0000 313.2500 -60.2500 Du        
   6133 ****       262.0000 313.2500 -60.0000 Du        
   6134 ****       262.0000 313.2500 -59.7500 Du        
   6135 ****       262.0000 313.2500 -59.5000 Du        
   6136 ****       262.0000 313.2500 -59.2500 Du        
   6137 ****       262.0000 313.2500 -59.0000 Du        
   6138 ****       262.0000 313.5000 -60.5000 Du        
   6139 ****       262.0000 313.5000 -60.2500 Du        
   6140 ****       262.0000 313.5000 -60.0000 Du        
   6141 ****       262.0000 313.5000 -59.7500 Du        
   6142 ****       262.0000 313.5000 -59.5000 Du        
   6143 ****       262.0000 313.5000 -59.2500 Du        
   6144 ****       262.0000 313.5000 -59.0000 Du        
   6145 ****       262.0000 313.5000 -58.7500 Du        
   6146 ****       262.0000 313.7500 -60.5000 Du        
   6147 ****       262.0000 313.7500 -60.2500 Du        
   6148 ****       262.0000 313.7500 -60.0000 Du        
   6149 ****       262.0000 313.7500 -59.7500 Du        
   6150 ****       262.0000 313.7500 -59.5000 Du        
   6151 ****       262.0000 313.7500 -59.2500 Du        
   6152 ****       262.0000 313.7500 -59.0000 Du        
   6153 ****       262.0000 313.7500 -58.7500 Du        
   6154 ****       262.0000 313.7500 -58.5000 Du        
   6155 ****       262.0000 313.7500 -58.2500 Du        
   6156 ****       262.0000 314.0000 -60.7500 Du        
   6157 ****       262.0000 314.0000 -60.5000 Du        
   6158 ****       262.0000 314.0000 -60.2500 Du        
   6159 ****       262.0000 314.0000 -60.0000 Du        
   6160 ****       262.0000 314.0000 -59.7500 Du        
   6161 ****       262.0000 314.0000 -59.5000 Du        
   6162 ****       262.0000 314.0000 -59.2500 Du        
   6163 ****       262.0000 314.0000 -59.0000 Du        
   6164 ****       262.0000 314.0000 -58.7500 Du        
   6165 ****       262.0000 314.0000 -58.5000 Du        
   6166 ****       262.0000 314.0000 -58.2500 Du        
   6167 ****       262.0000 314.0000 -58.0000 Du        
   6168 ****       262.0000 314.2500 -60.7500 Du        
   6169 ****       262.0000 314.2500 -60.5000 Du        
   6170 ****       262.0000 314.2500 -60.2500 Du        
   6171 ****       262.0000 314.2500 -60.0000 Du        
   6172 ****       262.0000 314.2500 -59.7500 Du        
   6173 ****       262.0000 314.2500 -59.5000 Du        
   6174 ****       262.0000 314.2500 -59.2500 Du        
   6175 ****       262.0000 314.2500 -59.0000 Du        
   6176 ****       262.0000 314.2500 -58.7500 Du        
   6177 ****       262.0000 314.2500 -58.5000 Du        
   6178 ****       262.0000 314.2500 -58.2500 Du        
   6179 ****       262.0000 314.2500 -58.0000 Du        
   6180 ****       262.0000 314.2500 -57.7500 Du        
   6181 ****       262.0000 314.5000 -60.5000 Du        
   6182 ****       262.0000 314.5000 -60.2500 Du        
   6183 ****       262.0000 314.5000 -60.0000 Du        
   6184 ****       262.0000 314.5000 -59.7500 Du        
   6185 ****       262.0000 314.5000 -59.5000 Du        
   6186 ****       262.0000 314.5000 -59.2500 Du        
   6187 ****       262.0000 314.5000 -59.0000 Du        
   6188 ****       262.0000 314.5000 -58.7500 Du        
   6189 ****       262.0000 314.5000 -58.5000 Du        
   6190 ****       262.0000 314.5000 -58.2500 Du        
   6191 ****       262.0000 314.5000 -58.0000 Du        
   6192 ****       262.0000 314.5000 -57.7500 Du        
   6193 ****       262.0000 314.5000 -57.5000 Du        
   6194 ****       262.0000 314.7500 -60.7500 Du        
   6195 ****       262.0000 314.7500 -60.5000 Du        
   6196 ****       262.0000 314.7500 -60.2500 Du        
   6197 ****       262.0000 314.7500 -60.0000 Du        
   6198 ****       262.0000 314.7500 -59.7500 Du        
   6199 ****       262.0000 314.7500 -59.5000 Du        
   6200 ****       262.0000 314.7500 -59.2500 Du        
   6201 ****       262.0000 314.7500 -59.0000 Du        
   6202 ****       262.0000 314.7500 -58.7500 Du        
   6203 ****       262.0000 314.7500 -58.5000 Du        
   6204 ****       262.0000 314.7500 -58.2500 Du        
   6205 ****       262.0000 314.7500 -58.0000 Du        
   6206 ****       262.0000 314.7500 -57.7500 Du        
   6207 ****       262.0000 314.7500 -57.5000 Du        
   6208 ****       262.0000 314.7500 -57.2500 Du        
   6209 ****       262.0000 315.0000 -60.5000 Du        
   6210 ****       262.0000 315.0000 -60.2500 Du        
   6211 ****       262.0000 315.0000 -60.0000 Du        
   6212 ****       262.0000 315.0000 -59.7500 Du        
   6213 ****       262.0000 315.0000 -59.5000 Du        
   6214 ****       262.0000 315.0000 -59.2500 Du        
   6215 ****       262.0000 315.0000 -59.0000 Du        
   6216 ****       262.0000 315.0000 -58.7500 Du        
   6217 ****       262.0000 315.0000 -58.5000 Du        
   6218 ****       262.0000 315.0000 -58.2500 Du        
   6219 ****       262.0000 315.0000 -58.0000 Du        
   6220 ****       262.0000 315.0000 -57.7500 Du        
   6221 ****       262.0000 315.0000 -57.5000 Du        
   6222 ****       262.0000 315.0000 -57.2500 Du        
   6223 ****       262.0000 315.0000 -57.0000 Du        
   6224 ****       262.0000 315.2500 -60.5000 Du        
   6225 ****       262.0000 315.2500 -60.2500 Du        
   6226 ****       262.0000 315.2500 -60.0000 Du        
   6227 ****       262.0000 315.2500 -59.7500 Du        
   6228 ****       262.0000 315.2500 -59.5000 Du        
   6229 ****       262.0000 315.2500 -59.2500 Du        
   6230 ****       262.0000 315.2500 -59.0000 Du        
   6231 ****       262.0000 315.2500 -58.7500 Du        
   6232 ****       262.0000 315.2500 -58.5000 Du        
   6233 ****       262.0000 315.2500 -58.2500 Du        
   6234 ****       262.0000 315.2500 -58.0000 Du        
   6235 ****       262.0000 315.2500 -57.7500 Du        
   6236 ****       262.0000 315.2500 -57.5000 Du        
   6237 ****       262.0000 315.2500 -57.2500 Du        
   6238 ****       262.0000 315.2500 -57.0000 Du        
   6239 ****       262.0000 315.5000 -60.2500 Du        
   6240 ****       262.0000 315.5000 -60.0000 Du        
   6241 ****       262.0000 315.5000 -59.7500 Du        
   6242 ****       262.0000 315.5000 -59.5000 Du        
   6243 ****       262.0000 315.5000 -58.0000 Du        
   6244 ****       262.0000 315.5000 -57.7500 Du        
   6245 ****       262.0000 315.5000 -57.5000 Du        
   6246 ****       262.0000 315.5000 -57.2500 Du        
   6247 ****       262.0000 315.5000 -57.0000 Du        
   6248 ****       262.0000 315.7500 -57.2500 Du        
   6249 ****       262.0000 315.7500 -57.0000 Du        
   6250 ****       262.2500 312.7500 -60.0000 Du        
   6251 ****       262.2500 312.7500 -59.7500 Du        
   6252 ****       262.2500 313.0000 -60.2500 Du        
   6253 ****       262.2500 313.0000 -60.0000 Du        
   6254 ****       262.2500 313.0000 -59.7500 Du        
   6255 ****       262.2500 313.0000 -59.5000 Du        
   6256 ****       262.2500 313.2500 -60.2500 Du        
   6257 ****       262.2500 313.2500 -60.0000 Du        
   6258 ****       262.2500 313.2500 -59.7500 Du        
   6259 ****       262.2500 313.2500 -59.5000 Du        
   6260 ****       262.2500 313.2500 -59.2500 Du        
   6261 ****       262.2500 313.2500 -59.0000 Du        
   6262 ****       262.2500 313.5000 -60.2500 Du        
   6263 ****       262.2500 313.5000 -60.0000 Du        
   6264 ****       262.2500 313.5000 -59.7500 Du        
   6265 ****       262.2500 313.5000 -59.5000 Du        
   6266 ****       262.2500 313.5000 -59.2500 Du        
   6267 ****       262.2500 313.5000 -59.0000 Du        
   6268 ****       262.2500 313.5000 -58.7500 Du        
   6269 ****       262.2500 313.7500 -60.2500 Du        
   6270 ****       262.2500 313.7500 -60.0000 Du        
   6271 ****       262.2500 313.7500 -59.7500 Du        
   6272 ****       262.2500 313.7500 -59.5000 Du        
   6273 ****       262.2500 313.7500 -59.2500 Du        
   6274 ****       262.2500 313.7500 -59.0000 Du        
   6275 ****       262.2500 313.7500 -58.7500 Du        
   6276 ****       262.2500 313.7500 -58.5000 Du        
   6277 ****       262.2500 313.7500 -58.2500 Du        
   6278 ****       262.2500 314.0000 -60.2500 Du        
   6279 ****       262.2500 314.0000 -60.0000 Du        
   6280 ****       262.2500 314.0000 -59.7500 Du        
   6281 ****       262.2500 314.0000 -59.5000 Du        
   6282 ****       262.2500 314.0000 -59.2500 Du        
   6283 ****       262.2500 314.0000 -59.0000 Du        
   6284 ****       262.2500 314.0000 -58.7500 Du        
   6285 ****       262.2500 314.0000 -58.5000 Du        
   6286 ****       262.2500 314.0000 -58.2500 Du        
   6287 ****       262.2500 314.0000 -58.0000 Du        
   6288 ****       262.2500 314.2500 -60.2500 Du        
   6289 ****       262.2500 314.2500 -60.0000 Du        
   6290 ****       262.2500 314.2500 -59.7500 Du        
   6291 ****       262.2500 314.2500 -59.5000 Du        
   6292 ****       262.2500 314.2500 -59.2500 Du        
   6293 ****       262.2500 314.2500 -59.0000 Du        
   6294 ****       262.2500 314.2500 -58.7500 Du        
   6295 ****       262.2500 314.2500 -58.5000 Du        
   6296 ****       262.2500 314.2500 -58.2500 Du        
   6297 ****       262.2500 314.2500 -58.0000 Du        
   6298 ****       262.2500 314.2500 -57.7500 Du        
   6299 ****       262.2500 314.2500 -57.5000 Du        
   6300 ****       262.2500 314.5000 -60.0000 Du        
   6301 ****       262.2500 314.5000 -59.7500 Du        
   6302 ****       262.2500 314.5000 -59.5000 Du        
   6303 ****       262.2500 314.5000 -59.2500 Du        
   6304 ****       262.2500 314.5000 -59.0000 Du        
   6305 ****       262.2500 314.5000 -58.7500 Du        
   6306 ****       262.2500 314.5000 -58.5000 Du        
   6307 ****       262.2500 314.5000 -58.2500 Du        
   6308 ****       262.2500 314.5000 -58.0000 Du        
   6309 ****       262.2500 314.5000 -57.7500 Du        
   6310 ****       262.2500 314.5000 -57.5000 Du        
   6311 ****       262.2500 314.7500 -60.0000 Du        
   6312 ****       262.2500 314.7500 -59.7500 Du        
   6313 ****       262.2500 314.7500 -58.5000 Du        
   6314 ****       262.2500 314.7500 -58.2500 Du        
   6315 ****       262.2500 314.7500 -58.0000 Du        
   6316 ****       262.2500 314.7500 -57.7500 Du        
   6317 ****       262.2500 314.7500 -57.5000 Du        
   6318 ****       262.2500 314.7500 -57.2500 Du        
   6319 ****       262.2500 315.0000 -57.7500 Du        
   6320 ****       262.2500 315.0000 -57.5000 Du        
   6321 ****       262.2500 315.0000 -57.2500 Du        
   6322 ****       262.5000 313.0000 -60.0000 Du        
   6323 ****       262.5000 313.0000 -59.7500 Du        
   6324 ****       262.5000 313.2500 -59.7500 Du        
   6325 ****       262.5000 313.2500 -59.5000 Du        
   6326 ****       262.5000 313.5000 -59.5000 Du        
   6327 ****       262.5000 313.5000 -59.2500 Du        
   6328 ****       262.5000 313.7500 -59.0000 Du        
