#       Name:                CT1002167954
#       Creating user name   hitesit
#       Creation time:       Sun Apr 16 02:28:09 2023


#       File generated by GOLD software.
#

@<TRIPOS>MOLECULE
CT1002167954|ligand_prepared|mol2|1|dock7
    29    30     1
SMALL
NO_CHARGES


@<TRIPOS>ATOM
      1 C1         254.1877 319.0989 -59.3162 C.3            1 RES1               0.0000
      2 C2         255.2141 318.4728 -60.2821 C.ar           1 RES1               0.0000
      3 C3         252.8932 318.3117 -59.4974 C.2            1 RES1               0.0000
      4 C4         254.7926 318.9888 -57.9209 C.2            1 RES1               0.0000
      5 C5         253.8976 320.5922 -59.5947 C.3            1 RES1               0.0000
      6 C6         255.1496 318.7294 -61.6484 C.ar           1 RES1               0.0000
      7 C7         256.2310 317.6402 -59.8224 C.ar           1 RES1               0.0000
      8 N8         252.5391 317.4417 -58.5087 N.am           1 RES1               0.0000
      9 O9         252.2139 318.4235 -60.5105 O.2            1 RES1               0.0000
     10 N10        254.1654 318.1782 -57.0113 N.am           1 RES1               0.0000
     11 O11        255.8159 319.5837 -57.6062 O.2            1 RES1               0.0000
     12 C12        252.8444 321.1936 -58.6776 C.3            1 RES1               0.0000
     13 C13        256.0700 318.1761 -62.5231 C.ar           1 RES1               0.0000
     14 C14        257.1503 317.0878 -60.6988 C.ar           1 RES1               0.0000
     15 C15        253.0835 317.3757 -57.2514 C.2            1 RES1               0.0000
     16 C16        257.0712 317.3554 -62.0490 C.ar           1 RES1               0.0000
     17 O17        252.6090 316.6328 -56.3969 O.2            1 RES1               0.0000
     18 H18        254.8295 321.1599 -59.4822 H              1 RES1               0.0000
     19 H19        253.5634 320.6991 -60.6341 H              1 RES1               0.0000
     20 H20        254.3673 319.3708 -62.0403 H              1 RES1               0.0000
     21 H21        256.3121 317.4149 -58.7644 H              1 RES1               0.0000
     22 H22        251.8013 316.7787 -58.7242 H              1 RES1               0.0000
     23 H23        254.5398 318.1726 -56.0678 H              1 RES1               0.0000
     24 H24        252.6792 322.2423 -58.9156 H              1 RES1               0.0000
     25 H25        251.8969 320.6691 -58.7822 H              1 RES1               0.0000
     26 H26        253.1555 321.1271 -57.6372 H              1 RES1               0.0000
     27 H27        256.0026 318.3888 -63.5849 H              1 RES1               0.0000
     28 H28        257.9362 316.4419 -60.3213 H              1 RES1               0.0000
     29 H29        257.7923 316.9225 -62.7343 H              1 RES1               0.0000
@<TRIPOS>BOND
    1    1    2 1     
    2    1    3 1     
    3    1    4 1     
    4    1    5 1     
    5    2    6 ar    
    6    2    7 ar    
    7    3    8 1     
    8    3    9 2     
    9    4   10 1     
   10    4   11 2     
   11    5   12 1     
   12    5   18 1     
   13    5   19 1     
   14    6   13 ar    
   15    6   20 1     
   16    7   14 ar    
   17    7   21 1     
   18    8   15 1     
   19    8   22 1     
   20   10   15 1     
   21   10   23 1     
   22   12   24 1     
   23   12   25 1     
   24   12   26 1     
   25   13   16 ar    
   26   13   27 1     
   27   14   16 ar    
   28   14   28 1     
   29   15   17 2     
   30   16   29 1     
@<TRIPOS>SUBSTRUCTURE
      1 RES1           1
@<TRIPOS>SET
DONOR_HYDROGENS      STATIC     ATOMS    <user>   **** ""
2 22 23
ATOM$RED        STATIC     ATOMS    COLORGROUP SYSTEM
2 22 23
@<TRIPOS>COMMENT
> <Gold.Version>
2022.3.0

> <Gold.Id.Protein>
unknown|7ts3_clean|pdb

> <Gold.Protein.RotatedTorsions>
[ 17130 17106 17107 17108 ] final  -19.53 input   41.13 | X-H torsion
[ 17186 17148 17149 17150 ] final   81.21 input  103.89 | X-H torsion
[ 18260 18245 18246 18247 ] final -176.45 input   44.49 | X-H torsion
[ 18335 18283 18284 18285 ] final  -98.45 input   36.74 | X-H torsion
[ 18422 18377 18378 18379 ] final   44.22 input  100.26 | X-H torsion
[ 18430 18388 18387 18385 ] final  109.38 input   60.03 | X-H torsion
[ 18490 18457 18458 18459 ] final  101.73 input   96.11 | X-H torsion
[ 18643 18610 18611 18612 ] final -122.93 input  123.23 | X-H torsion
[ 7420 7372 7373 7374 ] final -108.25 input   96.91 | X-H torsion
[ 7454 7433 7434 7435 ] final  -87.31 input   88.26 | X-H torsion
[ 18226 18203 18204 18205 ] final  -26.29 input   35.17 | X-H torsion
[ 18536 18521 18522 18523 ] final    6.66 input  122.93 | X-H torsion
[ 10035 10015 10014 10011 ] final   74.43 input   59.98 | X-H torsion
[ 18230 18208 18207 18204 ] final  -64.87 input   59.98 | X-H torsion
[ 18170 18128 18129 18130 ] final  -74.24 input   43.95 | X-H torsion
[ 17239 17211 17212 17213 ] final  -12.09 input   53.98 | X-H torsion
[ 10077 10062 10063 10064 ] final   77.01 input   19.45 | X-H torsion
[ 16922 16880 16879 16877 ] final  -12.70 input   60.00 | X-H torsion
[ 11366 11344 11343 11340 ] final   -0.94 input   59.97 | X-H torsion
[ 11421 11386 11387 11388 ] final  -23.79 input   51.38 | X-H torsion
[ 17293 17257 17258 17259 ] final  -96.43 input   68.80 | X-H torsion
[ 17355 17313 17314 17315 ] final   52.78 input   88.03 | X-H torsion
[ 18704 18669 18670 18671 ] final   63.96 input   94.89 | X-H torsion
[ 22365 22344 22345 22346 ] final  -33.85 input   53.30 | X-H torsion
[ 27272 17055 17054 17053 ] final -114.08 input    0.00 | X-H torsion
[ 27276 18131 18130 18129 ] final  128.03 input    0.00 | X-H torsion
[ 27279 18248 18247 18246 ] final   56.18 input   -0.00 | X-H torsion
[ 27282 18286 18285 18284 ] final -152.53 input    0.00 | X-H torsion
[ 27285 18380 18379 18378 ] final -171.09 input   -0.00 | X-H torsion
[ 27290 18460 18459 18458 ] final -109.56 input    0.00 | X-H torsion
[ 27304 18206 18205 18204 ] final  -33.70 input    0.00 | X-H torsion
[ 27306 16948 16947 16946 ] final   -9.94 input   -0.00 | X-H torsion
[ 27311 16980 16979 16978 ] final -147.14 input    0.00 | X-H torsion
[ 27315 17109 17108 17107 ] final   38.82 input    0.00 | X-H torsion
[ 27317 17151 17150 17149 ] final   65.56 input    0.00 | X-H torsion
[ 27322 10065 10064 10063 ] final    3.30 input    0.00 | X-H torsion
[ 27324 11342 11341 11340 ] final  145.58 input    0.00 | X-H torsion
[ 27340 7243 7242 7241 ] final   58.28 input   -0.00 | X-H torsion
[ 27344 17260 17259 17258 ] final  137.32 input    0.00 | X-H torsion

> <Gold.Protein.ActiveResidues>
 MET341  HIS342  TRP414  ARG419  CYS420  VAL421  GLY422  LEU429  LEU460  SER462 
 ALA463  ILE464  SER482  GLN483  ARG486  TYR567  GLY568  LEU569  PRO570  ALA571 
 VAL572  SER573  ASN574  MET575  PRO588  PHE589  SER590  GLY591  TRP592  TYR593 
 MET594  GLY595  GLU597  ILE598  ARG601  ASP602  ARG608  ILE653  VAL654  TRP683 
 PHE709  TYR711  HEM801  H4B802 

> <Gold.Protein.RotatedAtoms>
  266.2604  321.4371  -61.4953 H   0  0  0  0  0  0  0  0  0  0  0  0  # atno 7420 bound_to 7372
  267.8130  320.5730  -58.8848 H   0  0  0  0  0  0  0  0  0  0  0  0  # atno 7454 bound_to 7433
  268.5197  310.2299  -56.4252 H   0  0  0  0  0  0  0  0  0  0  0  0  # atno 10035 bound_to 10015
  265.3160  307.1403  -58.5645 H   0  0  0  0  0  0  0  0  0  0  0  0  # atno 10077 bound_to 10062
  249.9829  312.0926  -62.6285 H   0  0  0  0  0  0  0  0  0  0  0  0  # atno 11366 bound_to 11344
  251.5991  309.9970  -62.7801 H   0  0  0  0  0  0  0  0  0  0  0  0  # atno 11421 bound_to 11386
  253.2301  313.5109  -56.2461 H   0  0  0  0  0  0  0  0  0  0  0  0  # atno 16922 bound_to 16880
  257.2075  311.5026  -58.6145 H   0  0  0  0  0  0  0  0  0  0  0  0  # atno 17130 bound_to 17106
  258.8589  310.8089  -61.5502 H   0  0  0  0  0  0  0  0  0  0  0  0  # atno 17186 bound_to 17148
  255.8531  310.8484  -64.7465 H   0  0  0  0  0  0  0  0  0  0  0  0  # atno 17239 bound_to 17211
  255.2857  309.3864  -66.7161 H   0  0  0  0  0  0  0  0  0  0  0  0  # atno 17293 bound_to 17257
  256.8399  310.5716  -68.3251 H   0  0  0  0  0  0  0  0  0  0  0  0  # atno 17355 bound_to 17313
  260.0157  307.1526  -63.1779 H   0  0  0  0  0  0  0  0  0  0  0  0  # atno 18170 bound_to 18128
  263.0267  309.2548  -60.9475 H   0  0  0  0  0  0  0  0  0  0  0  0  # atno 18226 bound_to 18203
  262.3099  306.6767  -59.1763 H   0  0  0  0  0  0  0  0  0  0  0  0  # atno 18230 bound_to 18208
  263.0908  310.5721  -58.5591 H   0  0  0  0  0  0  0  0  0  0  0  0  # atno 18260 bound_to 18245
  263.0369  312.0920  -55.4713 H   0  0  0  0  0  0  0  0  0  0  0  0  # atno 18335 bound_to 18283
  262.0775  314.5364  -51.8721 H   0  0  0  0  0  0  0  0  0  0  0  0  # atno 18422 bound_to 18377
  254.2235  315.2502  -54.6536 H   0  0  0  0  0  0  0  0  0  0  0  0  # atno 18430 bound_to 18388
  261.4838  318.2852  -53.9900 H   0  0  0  0  0  0  0  0  0  0  0  0  # atno 18490 bound_to 18457
  260.7907  321.0822  -51.3501 H   0  0  0  0  0  0  0  0  0  0  0  0  # atno 18536 bound_to 18521
  257.8048  322.8401  -53.4660 H   0  0  0  0  0  0  0  0  0  0  0  0  # atno 18643 bound_to 18610
  256.2198  320.7207  -51.7934 H   0  0  0  0  0  0  0  0  0  0  0  0  # atno 18704 bound_to 18669
  263.4435  317.9137  -48.6204 H   0  0  0  0  0  0  0  0  0  0  0  0  # atno 22365 bound_to 22344
  260.1812  311.3982  -58.4883 LP  0  0  0  0  0  0  0  0  0  0  0  0  # atno 27272 bound_to 17055
  260.2794  310.4243  -57.0593 LP  0  0  0  0  0  0  0  0  0  0  0  0  # atno 27273 bound_to 17055
  257.7909  310.3583  -57.4250 LP  0  0  0  0  0  0  0  0  0  0  0  0  # atno 27274 bound_to 17106
  257.2990  310.5767  -60.7957 LP  0  0  0  0  0  0  0  0  0  0  0  0  # atno 27275 bound_to 17148
  259.6993  309.4054  -60.6747 LP  0  0  0  0  0  0  0  0  0  0  0  0  # atno 27276 bound_to 18131
  260.1109  310.2833  -62.1099 LP  0  0  0  0  0  0  0  0  0  0  0  0  # atno 27277 bound_to 18131
  261.9713  310.6906  -57.2250 LP  0  0  0  0  0  0  0  0  0  0  0  0  # atno 27278 bound_to 18245
  263.4484  309.5972  -54.5905 LP  0  0  0  0  0  0  0  0  0  0  0  0  # atno 27279 bound_to 18248
  262.0143  310.5360  -54.3417 LP  0  0  0  0  0  0  0  0  0  0  0  0  # atno 27280 bound_to 18248
  264.5174  312.8731  -54.9643 LP  0  0  0  0  0  0  0  0  0  0  0  0  # atno 27281 bound_to 18283
  262.9147  316.1510  -54.3244 LP  0  0  0  0  0  0  0  0  0  0  0  0  # atno 27282 bound_to 18286
  263.2242  314.7969  -55.3592 LP  0  0  0  0  0  0  0  0  0  0  0  0  # atno 27283 bound_to 18286
  261.5235  314.1310  -53.4799 LP  0  0  0  0  0  0  0  0  0  0  0  0  # atno 27284 bound_to 18377
  262.9286  317.9026  -50.9086 LP  0  0  0  0  0  0  0  0  0  0  0  0  # atno 27285 bound_to 18380
  262.6255  316.1974  -50.8898 LP  0  0  0  0  0  0  0  0  0  0  0  0  # atno 27286 bound_to 18380
  254.6409  313.6832  -54.5184 LP  0  0  0  0  0  0  0  0  0  0  0  0  # atno 27287 bound_to 18388
  255.1164  314.5484  -55.8191 LP  0  0  0  0  0  0  0  0  0  0  0  0  # atno 27288 bound_to 18388
  261.6452  317.5047  -52.4347 LP  0  0  0  0  0  0  0  0  0  0  0  0  # atno 27289 bound_to 18457
  258.9716  320.6394  -52.6048 LP  0  0  0  0  0  0  0  0  0  0  0  0  # atno 27290 bound_to 18460
  259.1360  318.9334  -52.3546 LP  0  0  0  0  0  0  0  0  0  0  0  0  # atno 27291 bound_to 18460
  257.7503  321.4425  -52.4261 LP  0  0  0  0  0  0  0  0  0  0  0  0  # atno 27292 bound_to 18610
  265.2775  320.8840  -60.1614 LP  0  0  0  0  0  0  0  0  0  0  0  0  # atno 27301 bound_to 7372
  266.6557  319.3926  -59.4489 LP  0  0  0  0  0  0  0  0  0  0  0  0  # atno 27302 bound_to 7433
  261.6996  308.1177  -60.9433 LP  0  0  0  0  0  0  0  0  0  0  0  0  # atno 27303 bound_to 18203
  264.3286  308.3969  -58.9699 LP  0  0  0  0  0  0  0  0  0  0  0  0  # atno 27304 bound_to 18206
  265.0160  309.9656  -58.7119 LP  0  0  0  0  0  0  0  0  0  0  0  0  # atno 27305 bound_to 18206
  259.3703  311.5737  -50.5652 LP  0  0  0  0  0  0  0  0  0  0  0  0  # atno 27306 bound_to 16948
  259.6164  310.8781  -52.1323 LP  0  0  0  0  0  0  0  0  0  0  0  0  # atno 27307 bound_to 16948
  261.3809  319.9429  -50.1675 LP  0  0  0  0  0  0  0  0  0  0  0  0  # atno 27308 bound_to 18521
  267.0752  310.6151  -57.0677 LP  0  0  0  0  0  0  0  0  0  0  0  0  # atno 27309 bound_to 10015
  268.4518  311.1356  -57.7753 LP  0  0  0  0  0  0  0  0  0  0  0  0  # atno 27310 bound_to 10015
  256.4556  309.9262  -56.0781 LP  0  0  0  0  0  0  0  0  0  0  0  0  # atno 27311 bound_to 16980
  255.8934  309.4092  -54.5235 LP  0  0  0  0  0  0  0  0  0  0  0  0  # atno 27312 bound_to 16980
  261.8081  306.3301  -57.6673 LP  0  0  0  0  0  0  0  0  0  0  0  0  # atno 27313 bound_to 18208
  263.0397  307.3766  -57.9009 LP  0  0  0  0  0  0  0  0  0  0  0  0  # atno 27314 bound_to 18208
  255.4278  309.6091  -60.1157 LP  0  0  0  0  0  0  0  0  0  0  0  0  # atno 27315 bound_to 17109
  255.7604  309.4010  -61.8028 LP  0  0  0  0  0  0  0  0  0  0  0  0  # atno 27316 bound_to 17109
  258.6257  308.9982  -63.4341 LP  0  0  0  0  0  0  0  0  0  0  0  0  # atno 27317 bound_to 17151
  258.4968  309.6023  -65.0523 LP  0  0  0  0  0  0  0  0  0  0  0  0  # atno 27318 bound_to 17151
  260.3205  308.4341  -64.3322 LP  0  0  0  0  0  0  0  0  0  0  0  0  # atno 27319 bound_to 18128
  256.1365  309.8212  -63.3627 LP  0  0  0  0  0  0  0  0  0  0  0  0  # atno 27320 bound_to 17211
  266.8986  307.3980  -59.2457 LP  0  0  0  0  0  0  0  0  0  0  0  0  # atno 27321 bound_to 10062
  264.0614  307.3874  -60.3176 LP  0  0  0  0  0  0  0  0  0  0  0  0  # atno 27322 bound_to 10065
  263.5361  306.9590  -61.9115 LP  0  0  0  0  0  0  0  0  0  0  0  0  # atno 27323 bound_to 10065
  254.3218  311.6864  -63.1943 LP  0  0  0  0  0  0  0  0  0  0  0  0  # atno 27324 bound_to 11342
  253.9353  311.1441  -64.7933 LP  0  0  0  0  0  0  0  0  0  0  0  0  # atno 27325 bound_to 11342
  251.8300  314.0455  -55.6121 LP  0  0  0  0  0  0  0  0  0  0  0  0  # atno 27326 bound_to 16880
  251.8376  312.7496  -56.6058 LP  0  0  0  0  0  0  0  0  0  0  0  0  # atno 27327 bound_to 16880
  249.0455  313.1954  -63.3728 LP  0  0  0  0  0  0  0  0  0  0  0  0  # atno 27335 bound_to 11344
  250.3951  313.6664  -62.5832 LP  0  0  0  0  0  0  0  0  0  0  0  0  # atno 27336 bound_to 11344
  252.0820  311.6465  -62.4460 LP  0  0  0  0  0  0  0  0  0  0  0  0  # atno 27337 bound_to 11386
  262.5482  322.2551  -63.1379 LP  0  0  0  0  0  0  0  0  0  0  0  0  # atno 27340 bound_to 7243
  263.9031  322.7220  -62.1652 LP  0  0  0  0  0  0  0  0  0  0  0  0  # atno 27341 bound_to 7243
  255.0042  311.0339  -66.2153 LP  0  0  0  0  0  0  0  0  0  0  0  0  # atno 27343 bound_to 17257
  255.0848  312.4948  -70.6769 LP  0  0  0  0  0  0  0  0  0  0  0  0  # atno 27344 bound_to 17260
  254.1528  311.0397  -70.7958 LP  0  0  0  0  0  0  0  0  0  0  0  0  # atno 27345 bound_to 17260
  255.5860  311.6841  -68.7965 LP  0  0  0  0  0  0  0  0  0  0  0  0  # atno 27346 bound_to 17313

> <Gold.Score>
     Fitness  S(hb_ext) S(vdw_ext)  S(hb_int)    S(int)      intcor
     29.58       1.12      22.32       0.00      -2.23      -0.76

> <Gold.Goldscore.Fitness>
29.5839

> <Gold.Goldscore.Internal.Vdw>
-2.6083

> <Gold.Goldscore.Internal.Torsion>
-0.3760

> <Gold.Goldscore.External.Vdw>
22.3222

> <Gold.Goldscore.Internal.HBond>
0.0000

> <Gold.Goldscore.External.HBond>
1.1167

> <Gold.Goldscore.Internal.Correction>
-0.7585

> <Gold.Goldscore.Hbonds>
donor molecule, donor type, donor heavy atom, donor atom, acceptor molecule, acceptor atom, score
      P1  H 11393 11427       L1    17  0.15
      P1  H 19270 19304       L1    17  0.14

> <Gold.Goldscore.Internal.Vdw.Weighted>
-2.6083

> <Gold.Goldscore.Internal.Torsion.Weighted>
-0.3760

> <Gold.Goldscore.External.Vdw.Weighted>
30.6930

> <Gold.Goldscore.Internal.HBond.Weighted>
0.0000

> <Gold.Goldscore.External.HBond.Weighted>
1.1167

> <Gold.Goldscore.Internal.Correction.Weighted>
-0.7585

> <Gold.Rescore>
     Score     S(PLP)   S(hbond)     S(cho)   S(metal)  DE(clash)   DE(tors)     intcor
      9.43      -7.66       1.16       0.00       0.00       0.55       0.57       ----

> <Gold.PLP.Fitness>
9.4341

> <Gold.PLP.PLP>
-7.6621

> <Gold.PLP.part.hbond>
-3.0000

> <Gold.PLP.part.metal>
0.0000

> <Gold.PLP.part.buried>
3.0794

> <Gold.PLP.part.nonpolar>
-15.3754

> <Gold.PLP.part.repulsive>
8.6033

> <Gold.PLP.ligand.clash>
0.5472

> <Gold.PLP.ligand.torsion>
0.5736

> <Gold.PLP.Chemscore.Hbond>
1.1554

> <Gold.PLP.Chemscore.CHOScore>
0.0000

> <Gold.PLP.Chemscore.Metal>
0.0000

> <Gold.Chemscore.Hbonds>
donor molecule, donor type, donor heavy atom, donor atom, acceptor molecule, acceptor atom, score
      L1  H    10    23       P1 18940  0.09

> <Gold.PLP.Chemscore.Internal.Correction>
   9.000000E+99

