#       Name:                CT1002167954
#       Creating user name   hitesit
#       Creation time:       Sun Apr 16 02:28:06 2023


#       File generated by GOLD software.
#

@<TRIPOS>MOLECULE
CT1002167954|ligand_prepared|mol2|1|dock3
    29    30     1
SMALL
NO_CHARGES


@<TRIPOS>ATOM
      1 C1         259.7143 315.7457 -59.7101 C.3            1 RES1               0.0000
      2 C2         258.8274 316.4386 -60.7646 C.ar           1 RES1               0.0000
      3 C3         258.9867 314.4645 -59.3133 C.2            1 RES1               0.0000
      4 C4         261.0660 315.5127 -60.3760 C.2            1 RES1               0.0000
      5 C5         259.9484 316.5919 -58.4371 C.3            1 RES1               0.0000
      6 C6         257.6393 317.0607 -60.3930 C.ar           1 RES1               0.0000
      7 C7         259.1848 316.4662 -62.1100 C.ar           1 RES1               0.0000
      8 N8         259.4878 313.2838 -59.7768 N.am           1 RES1               0.0000
      9 O9         257.9660 314.4927 -58.6368 O.2            1 RES1               0.0000
     10 N10        261.4594 314.2185 -60.5949 N.am           1 RES1               0.0000
     11 O11        261.7865 316.4385 -60.7281 O.2            1 RES1               0.0000
     12 C12        261.0701 316.0712 -57.5523 C.3            1 RES1               0.0000
     13 C13        256.8389 317.6902 -61.3318 C.ar           1 RES1               0.0000
     14 C14        258.3828 317.0961 -63.0473 C.ar           1 RES1               0.0000
     15 C15        260.7179 313.0941 -60.3534 C.2            1 RES1               0.0000
     16 C16        257.2103 317.7088 -62.6594 C.ar           1 RES1               0.0000
     17 O17        261.1186 311.9666 -60.6278 O.2            1 RES1               0.0000
     18 H18        260.1829 317.6212 -58.7355 H              1 RES1               0.0000
     19 H19        259.0201 316.6154 -57.8530 H              1 RES1               0.0000
     20 H20        257.3295 317.0542 -59.3533 H              1 RES1               0.0000
     21 H21        260.1024 315.9898 -62.4383 H              1 RES1               0.0000
     22 H22        258.8929 312.4664 -59.6864 H              1 RES1               0.0000
     23 H23        262.3913 314.0804 -60.9728 H              1 RES1               0.0000
     24 H24        261.1922 316.7010 -56.6736 H              1 RES1               0.0000
     25 H25        260.8579 315.0583 -57.2165 H              1 RES1               0.0000
     26 H26        262.0138 316.0581 -58.0937 H              1 RES1               0.0000
     27 H27        255.9164 318.1697 -61.0216 H              1 RES1               0.0000
     28 H28        258.6787 317.1077 -64.0911 H              1 RES1               0.0000
     29 H29        256.5833 318.2023 -63.3946 H              1 RES1               0.0000
@<TRIPOS>BOND
    1    1    2 1     
    2    1    3 1     
    3    1    4 1     
    4    1    5 1     
    5    2    6 ar    
    6    2    7 ar    
    7    3    8 1     
    8    3    9 2     
    9    4   10 1     
   10    4   11 2     
   11    5   12 1     
   12    5   18 1     
   13    5   19 1     
   14    6   13 ar    
   15    6   20 1     
   16    7   14 ar    
   17    7   21 1     
   18    8   15 1     
   19    8   22 1     
   20   10   15 1     
   21   10   23 1     
   22   12   24 1     
   23   12   25 1     
   24   12   26 1     
   25   13   16 ar    
   26   13   27 1     
   27   14   16 ar    
   28   14   28 1     
   29   15   17 2     
   30   16   29 1     
@<TRIPOS>SUBSTRUCTURE
      1 RES1           1
@<TRIPOS>SET
DONOR_HYDROGENS      STATIC     ATOMS    <user>   **** ""
2 22 23
ATOM$RED        STATIC     ATOMS    COLORGROUP SYSTEM
2 22 23
@<TRIPOS>COMMENT
> <Gold.Version>
2022.3.0

> <Gold.Id.Protein>
unknown|7ts3_clean|pdb

> <Gold.Protein.RotatedTorsions>
[ 17130 17106 17107 17108 ] final   21.31 input   41.13 | X-H torsion
[ 17186 17148 17149 17150 ] final    3.38 input  103.89 | X-H torsion
[ 18260 18245 18246 18247 ] final  114.26 input   44.49 | X-H torsion
[ 18335 18283 18284 18285 ] final  -69.09 input   36.74 | X-H torsion
[ 18422 18377 18378 18379 ] final  -12.26 input  100.26 | X-H torsion
[ 18430 18388 18387 18385 ] final  154.17 input   60.03 | X-H torsion
[ 18490 18457 18458 18459 ] final  -74.85 input   96.11 | X-H torsion
[ 18643 18610 18611 18612 ] final  170.76 input  123.23 | X-H torsion
[ 7420 7372 7373 7374 ] final   93.97 input   96.91 | X-H torsion
[ 7454 7433 7434 7435 ] final -171.99 input   88.26 | X-H torsion
[ 18226 18203 18204 18205 ] final -137.12 input   35.17 | X-H torsion
[ 18536 18521 18522 18523 ] final  -15.44 input  122.93 | X-H torsion
[ 10035 10015 10014 10011 ] final   44.53 input   59.98 | X-H torsion
[ 18230 18208 18207 18204 ] final -165.25 input   59.98 | X-H torsion
[ 18170 18128 18129 18130 ] final   83.28 input   43.95 | X-H torsion
[ 17239 17211 17212 17213 ] final   47.09 input   53.98 | X-H torsion
[ 10077 10062 10063 10064 ] final  106.96 input   19.45 | X-H torsion
[ 16922 16880 16879 16877 ] final  118.24 input   60.00 | X-H torsion
[ 11366 11344 11343 11340 ] final    1.17 input   59.97 | X-H torsion
[ 11421 11386 11387 11388 ] final  -91.70 input   51.38 | X-H torsion
[ 17293 17257 17258 17259 ] final   44.10 input   68.80 | X-H torsion
[ 17355 17313 17314 17315 ] final   91.25 input   88.03 | X-H torsion
[ 18704 18669 18670 18671 ] final  -97.62 input   94.89 | X-H torsion
[ 22365 22344 22345 22346 ] final  -27.91 input   53.30 | X-H torsion
[ 27272 17055 17054 17053 ] final  101.48 input    0.00 | X-H torsion
[ 27276 18131 18130 18129 ] final  160.18 input    0.00 | X-H torsion
[ 27279 18248 18247 18246 ] final  141.32 input   -0.00 | X-H torsion
[ 27282 18286 18285 18284 ] final   -1.11 input    0.00 | X-H torsion
[ 27285 18380 18379 18378 ] final  108.39 input   -0.00 | X-H torsion
[ 27290 18460 18459 18458 ] final  -73.65 input    0.00 | X-H torsion
[ 27304 18206 18205 18204 ] final -173.52 input    0.00 | X-H torsion
[ 27306 16948 16947 16946 ] final  111.15 input   -0.00 | X-H torsion
[ 27311 16980 16979 16978 ] final   -6.26 input    0.00 | X-H torsion
[ 27315 17109 17108 17107 ] final -130.88 input    0.00 | X-H torsion
[ 27317 17151 17150 17149 ] final  -19.53 input    0.00 | X-H torsion
[ 27322 10065 10064 10063 ] final  -65.60 input    0.00 | X-H torsion
[ 27324 11342 11341 11340 ] final   40.84 input    0.00 | X-H torsion
[ 27340 7243 7242 7241 ] final  120.36 input   -0.00 | X-H torsion
[ 27344 17260 17259 17258 ] final  141.49 input    0.00 | X-H torsion

> <Gold.Protein.ActiveResidues>
 MET341  HIS342  TRP414  ARG419  CYS420  VAL421  GLY422  LEU429  LEU460  SER462 
 ALA463  ILE464  SER482  GLN483  ARG486  TYR567  GLY568  LEU569  PRO570  ALA571 
 VAL572  SER573  ASN574  MET575  PRO588  PHE589  SER590  GLY591  TRP592  TYR593 
 MET594  GLY595  GLU597  ILE598  ARG601  ASP602  ARG608  ILE653  VAL654  TRP683 
 PHE709  TYR711  HEM801  H4B802 

> <Gold.Protein.RotatedAtoms>
  265.1350  321.1867  -60.2022 H   0  0  0  0  0  0  0  0  0  0  0  0  # atno 7420 bound_to 7372
  266.7781  320.1920  -58.4424 H   0  0  0  0  0  0  0  0  0  0  0  0  # atno 7454 bound_to 7433
  268.0595  310.1382  -56.3113 H   0  0  0  0  0  0  0  0  0  0  0  0  # atno 10035 bound_to 10015
  265.5984  306.9208  -58.2895 H   0  0  0  0  0  0  0  0  0  0  0  0  # atno 10077 bound_to 10062
  250.0114  312.1031  -62.6120 H   0  0  0  0  0  0  0  0  0  0  0  0  # atno 11366 bound_to 11344
  252.3044  310.4828  -63.2862 H   0  0  0  0  0  0  0  0  0  0  0  0  # atno 11421 bound_to 11386
  251.6965  312.8233  -56.5234 H   0  0  0  0  0  0  0  0  0  0  0  0  # atno 16922 bound_to 16880
  256.7506  311.1198  -58.4398 H   0  0  0  0  0  0  0  0  0  0  0  0  # atno 17130 bound_to 17106
  258.2109  309.9055  -61.5497 H   0  0  0  0  0  0  0  0  0  0  0  0  # atno 17186 bound_to 17148
  255.1833  310.6094  -64.2441 H   0  0  0  0  0  0  0  0  0  0  0  0  # atno 17239 bound_to 17211
  255.5336  311.0026  -66.4725 H   0  0  0  0  0  0  0  0  0  0  0  0  # atno 17293 bound_to 17257
  256.8665  311.0387  -67.9920 H   0  0  0  0  0  0  0  0  0  0  0  0  # atno 17355 bound_to 17313
  260.1580  308.6312  -64.1020 H   0  0  0  0  0  0  0  0  0  0  0  0  # atno 18170 bound_to 18128
  261.6209  309.0525  -61.2663 H   0  0  0  0  0  0  0  0  0  0  0  0  # atno 18226 bound_to 18203
  261.7032  306.2265  -57.9516 H   0  0  0  0  0  0  0  0  0  0  0  0  # atno 18230 bound_to 18208
  262.5656  311.3923  -58.3281 H   0  0  0  0  0  0  0  0  0  0  0  0  # atno 18260 bound_to 18245
  262.9945  312.5177  -55.6100 H   0  0  0  0  0  0  0  0  0  0  0  0  # atno 18335 bound_to 18283
  262.5622  314.7448  -52.5225 H   0  0  0  0  0  0  0  0  0  0  0  0  # atno 18422 bound_to 18377
  254.5424  315.3808  -55.2783 H   0  0  0  0  0  0  0  0  0  0  0  0  # atno 18430 bound_to 18388
  261.5960  317.5066  -52.4072 H   0  0  0  0  0  0  0  0  0  0  0  0  # atno 18490 bound_to 18457
  260.6600  320.7944  -51.4669 H   0  0  0  0  0  0  0  0  0  0  0  0  # atno 18536 bound_to 18521
  258.4381  322.1250  -53.5171 H   0  0  0  0  0  0  0  0  0  0  0  0  # atno 18643 bound_to 18610
  255.3418  320.4868  -53.2879 H   0  0  0  0  0  0  0  0  0  0  0  0  # atno 18704 bound_to 18669
  263.4044  317.9427  -48.6982 H   0  0  0  0  0  0  0  0  0  0  0  0  # atno 22365 bound_to 22344
  260.1869  310.1020  -57.4683 LP  0  0  0  0  0  0  0  0  0  0  0  0  # atno 27272 bound_to 17055
  260.2737  311.7204  -58.0793 LP  0  0  0  0  0  0  0  0  0  0  0  0  # atno 27273 bound_to 17055
  258.2324  310.7283  -57.5938 LP  0  0  0  0  0  0  0  0  0  0  0  0  # atno 27274 bound_to 17106
  257.9312  311.4580  -60.7962 LP  0  0  0  0  0  0  0  0  0  0  0  0  # atno 27275 bound_to 17148
  259.9392  309.7941  -60.5284 LP  0  0  0  0  0  0  0  0  0  0  0  0  # atno 27276 bound_to 18131
  259.8710  309.8946  -62.2562 LP  0  0  0  0  0  0  0  0  0  0  0  0  # atno 27277 bound_to 18131
  262.4874  309.8845  -57.4521 LP  0  0  0  0  0  0  0  0  0  0  0  0  # atno 27278 bound_to 18245
  263.1151  310.3237  -53.7336 LP  0  0  0  0  0  0  0  0  0  0  0  0  # atno 27279 bound_to 18248
  262.3475  309.8096  -55.1987 LP  0  0  0  0  0  0  0  0  0  0  0  0  # atno 27280 bound_to 18248
  264.5587  312.4597  -54.8296 LP  0  0  0  0  0  0  0  0  0  0  0  0  # atno 27281 bound_to 18283
  263.5862  314.8446  -55.1367 LP  0  0  0  0  0  0  0  0  0  0  0  0  # atno 27282 bound_to 18286
  262.5528  316.1033  -54.5469 LP  0  0  0  0  0  0  0  0  0  0  0  0  # atno 27283 bound_to 18286
  261.0508  313.9278  -52.8455 LP  0  0  0  0  0  0  0  0  0  0  0  0  # atno 27284 bound_to 18377
  263.4752  317.0651  -51.4114 LP  0  0  0  0  0  0  0  0  0  0  0  0  # atno 27285 bound_to 18380
  262.0789  317.0348  -50.3870 LP  0  0  0  0  0  0  0  0  0  0  0  0  # atno 27286 bound_to 18380
  254.2810  314.2064  -54.1825 LP  0  0  0  0  0  0  0  0  0  0  0  0  # atno 27287 bound_to 18388
  255.1552  313.8937  -55.5259 LP  0  0  0  0  0  0  0  0  0  0  0  0  # atno 27288 bound_to 18388
  261.5356  318.2651  -53.9805 LP  0  0  0  0  0  0  0  0  0  0  0  0  # atno 27289 bound_to 18457
  259.2252  320.4347  -53.0278 LP  0  0  0  0  0  0  0  0  0  0  0  0  # atno 27290 bound_to 18460
  258.8824  319.1382  -51.9316 LP  0  0  0  0  0  0  0  0  0  0  0  0  # atno 27291 bound_to 18460
  257.1215  322.1525  -52.3754 LP  0  0  0  0  0  0  0  0  0  0  0  0  # atno 27292 bound_to 18610
  266.3791  321.1291  -61.4270 LP  0  0  0  0  0  0  0  0  0  0  0  0  # atno 27301 bound_to 7372
  267.6700  319.7660  -59.8825 LP  0  0  0  0  0  0  0  0  0  0  0  0  # atno 27302 bound_to 7433
  263.0730  308.3154  -60.6318 LP  0  0  0  0  0  0  0  0  0  0  0  0  # atno 27303 bound_to 18203
  265.0150  309.6567  -58.2033 LP  0  0  0  0  0  0  0  0  0  0  0  0  # atno 27304 bound_to 18206
  264.3296  308.7058  -59.4784 LP  0  0  0  0  0  0  0  0  0  0  0  0  # atno 27305 bound_to 18206
  259.9347  310.4871  -51.4458 LP  0  0  0  0  0  0  0  0  0  0  0  0  # atno 27306 bound_to 16948
  259.0520  311.9647  -51.2517 LP  0  0  0  0  0  0  0  0  0  0  0  0  # atno 27307 bound_to 16948
  261.5096  320.2262  -50.0525 LP  0  0  0  0  0  0  0  0  0  0  0  0  # atno 27308 bound_to 18521
  267.1800  310.8821  -57.4605 LP  0  0  0  0  0  0  0  0  0  0  0  0  # atno 27309 bound_to 10015
  268.8107  310.9610  -57.4972 LP  0  0  0  0  0  0  0  0  0  0  0  0  # atno 27310 bound_to 10015
  256.1604  308.9688  -54.7896 LP  0  0  0  0  0  0  0  0  0  0  0  0  # atno 27311 bound_to 16980
  256.1886  310.3667  -55.8119 LP  0  0  0  0  0  0  0  0  0  0  0  0  # atno 27312 bound_to 16980
  262.9042  307.2761  -57.6274 LP  0  0  0  0  0  0  0  0  0  0  0  0  # atno 27313 bound_to 18208
  262.5542  306.8838  -59.1735 LP  0  0  0  0  0  0  0  0  0  0  0  0  # atno 27314 bound_to 18208
  255.8055  309.2580  -61.7620 LP  0  0  0  0  0  0  0  0  0  0  0  0  # atno 27315 bound_to 17109
  255.3828  309.7521  -60.1566 LP  0  0  0  0  0  0  0  0  0  0  0  0  # atno 27316 bound_to 17109
  259.0508  309.9553  -63.9582 LP  0  0  0  0  0  0  0  0  0  0  0  0  # atno 27317 bound_to 17151
  258.0717  308.6452  -64.5282 LP  0  0  0  0  0  0  0  0  0  0  0  0  # atno 27318 bound_to 17151
  260.1832  307.0092  -63.4417 LP  0  0  0  0  0  0  0  0  0  0  0  0  # atno 27319 bound_to 18128
  256.7935  310.0556  -63.8556 LP  0  0  0  0  0  0  0  0  0  0  0  0  # atno 27320 bound_to 17211
  266.6174  307.6165  -59.5193 LP  0  0  0  0  0  0  0  0  0  0  0  0  # atno 27321 bound_to 10062
  263.3767  306.7146  -60.5133 LP  0  0  0  0  0  0  0  0  0  0  0  0  # atno 27322 bound_to 10065
  264.2208  307.6318  -61.7158 LP  0  0  0  0  0  0  0  0  0  0  0  0  # atno 27323 bound_to 10065
  253.8793  312.1299  -64.4147 LP  0  0  0  0  0  0  0  0  0  0  0  0  # atno 27324 bound_to 11342
  254.3777  310.7006  -63.5729 LP  0  0  0  0  0  0  0  0  0  0  0  0  # atno 27325 bound_to 11342
  253.2202  313.3695  -56.3557 LP  0  0  0  0  0  0  0  0  0  0  0  0  # atno 27326 bound_to 16880
  251.9918  314.1180  -55.5828 LP  0  0  0  0  0  0  0  0  0  0  0  0  # atno 27327 bound_to 16880
  249.0373  313.1616  -63.3733 LP  0  0  0  0  0  0  0  0  0  0  0  0  # atno 27335 bound_to 11344
  250.3748  313.6895  -62.5993 LP  0  0  0  0  0  0  0  0  0  0  0  0  # atno 27336 bound_to 11344
  251.4006  311.1772  -61.9571 LP  0  0  0  0  0  0  0  0  0  0  0  0  # atno 27337 bound_to 11386
  262.9640  321.6639  -62.6133 LP  0  0  0  0  0  0  0  0  0  0  0  0  # atno 27340 bound_to 7243
  263.4873  323.3132  -62.6898 LP  0  0  0  0  0  0  0  0  0  0  0  0  # atno 27341 bound_to 7243
  254.7596  309.4390  -66.4558 LP  0  0  0  0  0  0  0  0  0  0  0  0  # atno 27343 bound_to 17257
  255.1317  312.4644  -70.7061 LP  0  0  0  0  0  0  0  0  0  0  0  0  # atno 27344 bound_to 17260
  254.1059  311.0701  -70.7665 LP  0  0  0  0  0  0  0  0  0  0  0  0  # atno 27345 bound_to 17260
  255.5595  311.2182  -69.1286 LP  0  0  0  0  0  0  0  0  0  0  0  0  # atno 27346 bound_to 17313

> <Gold.Score>
     Fitness  S(hb_ext) S(vdw_ext)  S(hb_int)    S(int)      intcor
     45.25       0.70      33.64       0.00      -1.71      -0.76

> <Gold.Goldscore.Fitness>
45.2542

> <Gold.Goldscore.Internal.Vdw>
-1.8111

> <Gold.Goldscore.Internal.Torsion>
-0.6550

> <Gold.Goldscore.External.Vdw>
33.6412

> <Gold.Goldscore.Internal.HBond>
0.0000

> <Gold.Goldscore.External.HBond>
0.7030

> <Gold.Goldscore.Internal.Correction>
-0.7607

> <Gold.Goldscore.Hbonds>
donor molecule, donor type, donor heavy atom, donor atom, acceptor molecule, acceptor atom, score
      P1  H 18245 18260       L1    17  0.04
      L1  H     8    22       P1 17106  0.10

> <Gold.Goldscore.Internal.Vdw.Weighted>
-1.8111

> <Gold.Goldscore.Internal.Torsion.Weighted>
-0.6550

> <Gold.Goldscore.External.Vdw.Weighted>
46.2567

> <Gold.Goldscore.Internal.HBond.Weighted>
0.0000

> <Gold.Goldscore.External.HBond.Weighted>
0.7030

> <Gold.Goldscore.Internal.Correction.Weighted>
-0.7607

> <Gold.Rescore>
     Score     S(PLP)   S(hbond)     S(cho)   S(metal)  DE(clash)   DE(tors)     intcor
     49.52     -43.68       0.50       0.00       1.00       1.06       0.30       ----

> <Gold.PLP.Fitness>
49.5200

> <Gold.PLP.PLP>
-43.6786

> <Gold.PLP.part.hbond>
-2.8807

> <Gold.PLP.part.metal>
-0.9724

> <Gold.PLP.part.buried>
14.0464

> <Gold.PLP.part.nonpolar>
-62.9531

> <Gold.PLP.part.repulsive>
7.1879

> <Gold.PLP.ligand.clash>
1.0614

> <Gold.PLP.ligand.torsion>
0.3010

> <Gold.PLP.Chemscore.Hbond>
0.5016

> <Gold.PLP.Chemscore.CHOScore>
0.0000

> <Gold.PLP.Chemscore.Metal>
1.0000

> <Gold.Chemscore.Hbonds>
donor molecule, donor type, donor heavy atom, donor atom, acceptor molecule, acceptor atom, score
      P1  M 26883 26883       L1    11  1.00

> <Gold.PLP.Chemscore.Internal.Correction>
   9.000000E+99

