#       Name:                CT1002167954
#       Creating user name   hitesit
#       Creation time:       Sun Apr 16 02:28:08 2023


#       File generated by GOLD software.
#

@<TRIPOS>MOLECULE
CT1002167954|ligand_prepared|mol2|1|dock6
    29    30     1
SMALL
NO_CHARGES


@<TRIPOS>ATOM
      1 C1         256.4890 317.2868 -62.9686 C.3            1 RES1               0.0000
      2 C2         257.7015 317.0024 -62.0589 C.ar           1 RES1               0.0000
      3 C3         255.2502 316.9089 -62.1620 C.2            1 RES1               0.0000
      4 C4         256.5668 318.7652 -63.3333 C.2            1 RES1               0.0000
      5 C5         256.4881 316.4702 -64.2819 C.3            1 RES1               0.0000
      6 C6         257.5425 316.8890 -60.6810 C.ar           1 RES1               0.0000
      7 C7         258.9826 316.8487 -62.5822 C.ar           1 RES1               0.0000
      8 N8         254.4819 317.9233 -61.6714 N.am           1 RES1               0.0000
      9 O9         254.9734 315.7392 -61.9264 O.2            1 RES1               0.0000
     10 N10        255.5776 319.5934 -62.8714 N.am           1 RES1               0.0000
     11 O11        257.4847 319.2233 -64.0025 O.2            1 RES1               0.0000
     12 C12        255.2199 316.6339 -65.1047 C.3            1 RES1               0.0000
     13 C13        258.6243 316.6283 -59.8563 C.ar           1 RES1               0.0000
     14 C14        260.0632 316.5883 -61.7557 C.ar           1 RES1               0.0000
     15 C15        254.5553 319.2449 -62.0314 C.2            1 RES1               0.0000
     16 C16        259.8851 316.4774 -60.3931 C.ar           1 RES1               0.0000
     17 O17        253.7352 320.0583 -61.6154 O.2            1 RES1               0.0000
     18 H18        257.3465 316.7797 -64.8908 H              1 RES1               0.0000
     19 H19        256.6157 315.4084 -64.0375 H              1 RES1               0.0000
     20 H20        256.5581 317.0071 -60.2403 H              1 RES1               0.0000
     21 H21        259.1465 316.9329 -63.6511 H              1 RES1               0.0000
     22 H22        253.7888 317.6764 -60.9722 H              1 RES1               0.0000
     23 H23        255.6058 320.5591 -63.1828 H              1 RES1               0.0000
     24 H24        255.2713 316.0401 -66.0149 H              1 RES1               0.0000
     25 H25        254.3484 316.3115 -64.5386 H              1 RES1               0.0000
     26 H26        255.0748 317.6747 -65.3868 H              1 RES1               0.0000
     27 H27        258.4791 316.5433 -58.7845 H              1 RES1               0.0000
     28 H28        261.0538 316.4709 -62.1824 H              1 RES1               0.0000
     29 H29        260.7324 316.2728 -59.7469 H              1 RES1               0.0000
@<TRIPOS>BOND
    1    1    2 1     
    2    1    3 1     
    3    1    4 1     
    4    1    5 1     
    5    2    6 ar    
    6    2    7 ar    
    7    3    8 1     
    8    3    9 2     
    9    4   10 1     
   10    4   11 2     
   11    5   12 1     
   12    5   18 1     
   13    5   19 1     
   14    6   13 ar    
   15    6   20 1     
   16    7   14 ar    
   17    7   21 1     
   18    8   15 1     
   19    8   22 1     
   20   10   15 1     
   21   10   23 1     
   22   12   24 1     
   23   12   25 1     
   24   12   26 1     
   25   13   16 ar    
   26   13   27 1     
   27   14   16 ar    
   28   14   28 1     
   29   15   17 2     
   30   16   29 1     
@<TRIPOS>SUBSTRUCTURE
      1 RES1           1
@<TRIPOS>SET
DONOR_HYDROGENS      STATIC     ATOMS    <user>   **** ""
2 22 23
ATOM$RED        STATIC     ATOMS    COLORGROUP SYSTEM
2 22 23
@<TRIPOS>COMMENT
> <Gold.Version>
2022.3.0

> <Gold.Id.Protein>
unknown|7ts3_clean|pdb

> <Gold.Protein.RotatedTorsions>
[ 17130 17106 17107 17108 ] final -172.02 input   41.13 | X-H torsion
[ 17186 17148 17149 17150 ] final   36.63 input  103.89 | X-H torsion
[ 18260 18245 18246 18247 ] final   61.57 input   44.49 | X-H torsion
[ 18335 18283 18284 18285 ] final  134.28 input   36.74 | X-H torsion
[ 18422 18377 18378 18379 ] final  176.86 input  100.26 | X-H torsion
[ 18430 18388 18387 18385 ] final  -67.55 input   60.03 | X-H torsion
[ 18490 18457 18458 18459 ] final   35.82 input   96.11 | X-H torsion
[ 18643 18610 18611 18612 ] final -109.84 input  123.23 | X-H torsion
[ 7420 7372 7373 7374 ] final  -16.54 input   96.91 | X-H torsion
[ 7454 7433 7434 7435 ] final -154.66 input   88.26 | X-H torsion
[ 18226 18203 18204 18205 ] final   25.66 input   35.17 | X-H torsion
[ 18536 18521 18522 18523 ] final  -11.76 input  122.93 | X-H torsion
[ 10035 10015 10014 10011 ] final   54.54 input   59.98 | X-H torsion
[ 18230 18208 18207 18204 ] final  -28.69 input   59.98 | X-H torsion
[ 18170 18128 18129 18130 ] final  -80.09 input   43.95 | X-H torsion
[ 17239 17211 17212 17213 ] final  155.03 input   53.98 | X-H torsion
[ 10077 10062 10063 10064 ] final -123.02 input   19.45 | X-H torsion
[ 16922 16880 16879 16877 ] final   34.38 input   60.00 | X-H torsion
[ 11366 11344 11343 11340 ] final    4.87 input   59.97 | X-H torsion
[ 11421 11386 11387 11388 ] final -116.19 input   51.38 | X-H torsion
[ 17293 17257 17258 17259 ] final -106.19 input   68.80 | X-H torsion
[ 17355 17313 17314 17315 ] final  155.14 input   88.03 | X-H torsion
[ 18704 18669 18670 18671 ] final  125.17 input   94.89 | X-H torsion
[ 22365 22344 22345 22346 ] final   67.01 input   53.30 | X-H torsion
[ 27272 17055 17054 17053 ] final -109.78 input    0.00 | X-H torsion
[ 27276 18131 18130 18129 ] final  -63.92 input    0.00 | X-H torsion
[ 27279 18248 18247 18246 ] final   51.65 input   -0.00 | X-H torsion
[ 27282 18286 18285 18284 ] final   14.77 input    0.00 | X-H torsion
[ 27285 18380 18379 18378 ] final -155.17 input   -0.00 | X-H torsion
[ 27290 18460 18459 18458 ] final    9.12 input    0.00 | X-H torsion
[ 27304 18206 18205 18204 ] final  114.95 input    0.00 | X-H torsion
[ 27306 16948 16947 16946 ] final   75.51 input   -0.00 | X-H torsion
[ 27311 16980 16979 16978 ] final -170.90 input    0.00 | X-H torsion
[ 27315 17109 17108 17107 ] final -164.70 input    0.00 | X-H torsion
[ 27317 17151 17150 17149 ] final  169.55 input    0.00 | X-H torsion
[ 27322 10065 10064 10063 ] final  -29.91 input    0.00 | X-H torsion
[ 27324 11342 11341 11340 ] final  -10.18 input    0.00 | X-H torsion
[ 27340 7243 7242 7241 ] final  -93.46 input   -0.00 | X-H torsion
[ 27344 17260 17259 17258 ] final   90.66 input    0.00 | X-H torsion

> <Gold.Protein.ActiveResidues>
 MET341  HIS342  TRP414  ARG419  CYS420  VAL421  GLY422  LEU429  LEU460  SER462 
 ALA463  ILE464  SER482  GLN483  ARG486  TYR567  GLY568  LEU569  PRO570  ALA571 
 VAL572  SER573  ASN574  MET575  PRO588  PHE589  SER590  GLY591  TRP592  TYR593 
 MET594  GLY595  GLU597  ILE598  ARG601  ASP602  ARG608  ILE653  VAL654  TRP683 
 PHE709  TYR711  HEM801  H4B802 

> <Gold.Protein.RotatedAtoms>
  266.2016  320.3922  -60.7815 H   0  0  0  0  0  0  0  0  0  0  0  0  # atno 7420 bound_to 7372
  266.9859  320.3546  -58.4104 H   0  0  0  0  0  0  0  0  0  0  0  0  # atno 7454 bound_to 7433
  268.2212  310.1539  -56.3268 H   0  0  0  0  0  0  0  0  0  0  0  0  # atno 10035 bound_to 10015
  266.9774  307.2459  -58.9947 H   0  0  0  0  0  0  0  0  0  0  0  0  # atno 10077 bound_to 10062
  250.0604  312.1245  -62.5839 H   0  0  0  0  0  0  0  0  0  0  0  0  # atno 11366 bound_to 11344
  252.4532  310.8290  -63.2604 H   0  0  0  0  0  0  0  0  0  0  0  0  # atno 11421 bound_to 11386
  252.9372  312.9426  -56.6337 H   0  0  0  0  0  0  0  0  0  0  0  0  # atno 16922 bound_to 16880
  258.1466  310.5605  -57.5096 H   0  0  0  0  0  0  0  0  0  0  0  0  # atno 17130 bound_to 17106
  258.6143  310.1927  -61.6556 H   0  0  0  0  0  0  0  0  0  0  0  0  # atno 17186 bound_to 17148
  255.9438  309.8294  -63.3241 H   0  0  0  0  0  0  0  0  0  0  0  0  # atno 17239 bound_to 17211
  255.1516  309.3588  -66.6561 H   0  0  0  0  0  0  0  0  0  0  0  0  # atno 17293 bound_to 17257
  256.3267  311.7867  -68.0008 H   0  0  0  0  0  0  0  0  0  0  0  0  # atno 17355 bound_to 17313
  260.0641  307.0982  -63.2326 H   0  0  0  0  0  0  0  0  0  0  0  0  # atno 18170 bound_to 18128
  263.1859  308.5488  -60.6722 H   0  0  0  0  0  0  0  0  0  0  0  0  # atno 18226 bound_to 18203
  262.7413  307.0540  -59.0768 H   0  0  0  0  0  0  0  0  0  0  0  0  # atno 18230 bound_to 18208
  262.0808  311.3719  -57.7156 H   0  0  0  0  0  0  0  0  0  0  0  0  # atno 18260 bound_to 18245
  264.4623  312.1234  -54.7673 H   0  0  0  0  0  0  0  0  0  0  0  0  # atno 18335 bound_to 18283
  261.0649  313.9341  -52.9855 H   0  0  0  0  0  0  0  0  0  0  0  0  # atno 18422 bound_to 18377
  255.0821  313.7165  -55.2971 H   0  0  0  0  0  0  0  0  0  0  0  0  # atno 18430 bound_to 18388
  260.7388  318.1337  -53.4008 H   0  0  0  0  0  0  0  0  0  0  0  0  # atno 18490 bound_to 18457
  260.6778  320.8465  -51.4544 H   0  0  0  0  0  0  0  0  0  0  0  0  # atno 18536 bound_to 18521
  257.6444  322.8958  -53.3615 H   0  0  0  0  0  0  0  0  0  0  0  0  # atno 18643 bound_to 18610
  256.3175  319.8795  -52.1043 H   0  0  0  0  0  0  0  0  0  0  0  0  # atno 18704 bound_to 18669
  263.6953  317.6463  -49.9368 H   0  0  0  0  0  0  0  0  0  0  0  0  # atno 22365 bound_to 22344
  260.1921  311.4501  -58.4507 LP  0  0  0  0  0  0  0  0  0  0  0  0  # atno 27272 bound_to 17055
  260.2685  310.3724  -57.0969 LP  0  0  0  0  0  0  0  0  0  0  0  0  # atno 27273 bound_to 17055
  256.8832  311.2689  -58.4929 LP  0  0  0  0  0  0  0  0  0  0  0  0  # atno 27274 bound_to 17106
  257.5377  311.1778  -60.6929 LP  0  0  0  0  0  0  0  0  0  0  0  0  # atno 27275 bound_to 17148
  260.1875  310.3988  -61.9946 LP  0  0  0  0  0  0  0  0  0  0  0  0  # atno 27276 bound_to 18131
  259.6228  309.2899  -60.7899 LP  0  0  0  0  0  0  0  0  0  0  0  0  # atno 27277 bound_to 18131
  262.9639  309.9047  -58.0540 LP  0  0  0  0  0  0  0  0  0  0  0  0  # atno 27278 bound_to 18245
  263.4206  309.5752  -54.6490 LP  0  0  0  0  0  0  0  0  0  0  0  0  # atno 27279 bound_to 18248
  262.0421  310.5581  -54.2833 LP  0  0  0  0  0  0  0  0  0  0  0  0  # atno 27280 bound_to 18248
  263.1333  312.8426  -55.6480 LP  0  0  0  0  0  0  0  0  0  0  0  0  # atno 27281 bound_to 18283
  263.3956  314.7975  -55.2732 LP  0  0  0  0  0  0  0  0  0  0  0  0  # atno 27282 bound_to 18286
  262.7434  316.1504  -54.4104 LP  0  0  0  0  0  0  0  0  0  0  0  0  # atno 27283 bound_to 18286
  262.5111  314.7184  -52.3940 LP  0  0  0  0  0  0  0  0  0  0  0  0  # atno 27284 bound_to 18377
  262.7357  317.9047  -50.7663 LP  0  0  0  0  0  0  0  0  0  0  0  0  # atno 27285 bound_to 18380
  262.8184  316.1952  -51.0321 LP  0  0  0  0  0  0  0  0  0  0  0  0  # atno 27286 bound_to 18380
  254.7040  315.2849  -55.5101 LP  0  0  0  0  0  0  0  0  0  0  0  0  # atno 27287 bound_to 18388
  254.1886  314.4913  -54.1793 LP  0  0  0  0  0  0  0  0  0  0  0  0  # atno 27288 bound_to 18388
  262.3729  317.6527  -53.0102 LP  0  0  0  0  0  0  0  0  0  0  0  0  # atno 27289 bound_to 18457
  259.4492  319.3134  -53.0879 LP  0  0  0  0  0  0  0  0  0  0  0  0  # atno 27290 bound_to 18460
  258.6585  320.2595  -51.8715 LP  0  0  0  0  0  0  0  0  0  0  0  0  # atno 27291 bound_to 18460
  257.9096  321.3872  -52.5299 LP  0  0  0  0  0  0  0  0  0  0  0  0  # atno 27292 bound_to 18610
  265.3351  321.9068  -60.8601 LP  0  0  0  0  0  0  0  0  0  0  0  0  # atno 27301 bound_to 7372
  267.4664  319.6066  -59.9139 LP  0  0  0  0  0  0  0  0  0  0  0  0  # atno 27302 bound_to 7433
  261.5440  308.8075  -61.2122 LP  0  0  0  0  0  0  0  0  0  0  0  0  # atno 27303 bound_to 18203
  264.9012  309.9508  -59.1654 LP  0  0  0  0  0  0  0  0  0  0  0  0  # atno 27304 bound_to 18206
  264.4434  308.4117  -58.5164 LP  0  0  0  0  0  0  0  0  0  0  0  0  # atno 27305 bound_to 18206
  259.9234  310.6026  -50.9286 LP  0  0  0  0  0  0  0  0  0  0  0  0  # atno 27306 bound_to 16948
  259.0634  311.8492  -51.7689 LP  0  0  0  0  0  0  0  0  0  0  0  0  # atno 27307 bound_to 16948
  261.4921  320.1749  -50.0648 LP  0  0  0  0  0  0  0  0  0  0  0  0  # atno 27308 bound_to 18521
  267.1174  310.7960  -57.3352 LP  0  0  0  0  0  0  0  0  0  0  0  0  # atno 27309 bound_to 10015
  268.7103  311.0312  -57.6069 LP  0  0  0  0  0  0  0  0  0  0  0  0  # atno 27310 bound_to 10015
  256.3015  310.2226  -55.9535 LP  0  0  0  0  0  0  0  0  0  0  0  0  # atno 27311 bound_to 16980
  256.0475  309.1128  -54.6481 LP  0  0  0  0  0  0  0  0  0  0  0  0  # atno 27312 bound_to 16980
  261.6713  306.1800  -58.2165 LP  0  0  0  0  0  0  0  0  0  0  0  0  # atno 27313 bound_to 18208
  262.7423  307.1470  -57.4519 LP  0  0  0  0  0  0  0  0  0  0  0  0  # atno 27314 bound_to 18208
  255.6401  309.7328  -61.7935 LP  0  0  0  0  0  0  0  0  0  0  0  0  # atno 27315 bound_to 17109
  255.5481  309.2772  -60.1250 LP  0  0  0  0  0  0  0  0  0  0  0  0  # atno 27316 bound_to 17109
  258.0742  308.7101  -64.6488 LP  0  0  0  0  0  0  0  0  0  0  0  0  # atno 27317 bound_to 17151
  259.0482  309.8904  -63.8375 LP  0  0  0  0  0  0  0  0  0  0  0  0  # atno 27318 bound_to 17151
  260.2738  308.4865  -64.2795 LP  0  0  0  0  0  0  0  0  0  0  0  0  # atno 27319 bound_to 18128
  256.0474  310.8209  -64.7582 LP  0  0  0  0  0  0  0  0  0  0  0  0  # atno 27320 bound_to 17211
  265.2449  307.2929  -58.8174 LP  0  0  0  0  0  0  0  0  0  0  0  0  # atno 27321 bound_to 10062
  263.7152  307.0379  -60.2632 LP  0  0  0  0  0  0  0  0  0  0  0  0  # atno 27322 bound_to 10065
  263.8823  307.3085  -61.9658 LP  0  0  0  0  0  0  0  0  0  0  0  0  # atno 27323 bound_to 10065
  253.8674  311.5007  -64.8151 LP  0  0  0  0  0  0  0  0  0  0  0  0  # atno 27324 bound_to 11342
  254.3897  311.3298  -63.1725 LP  0  0  0  0  0  0  0  0  0  0  0  0  # atno 27325 bound_to 11342
  252.5717  314.1738  -55.6344 LP  0  0  0  0  0  0  0  0  0  0  0  0  # atno 27326 bound_to 16880
  251.3910  313.1937  -56.1930 LP  0  0  0  0  0  0  0  0  0  0  0  0  # atno 27327 bound_to 16880
  249.0253  313.1019  -63.3726 LP  0  0  0  0  0  0  0  0  0  0  0  0  # atno 27335 bound_to 11344
  250.3373  313.7277  -62.6284 LP  0  0  0  0  0  0  0  0  0  0  0  0  # atno 27336 bound_to 11344
  251.2569  310.8427  -61.9820 LP  0  0  0  0  0  0  0  0  0  0  0  0  # atno 27337 bound_to 11386
  263.7926  323.0775  -62.3657 LP  0  0  0  0  0  0  0  0  0  0  0  0  # atno 27340 bound_to 7243
  262.6587  321.8996  -62.9374 LP  0  0  0  0  0  0  0  0  0  0  0  0  # atno 27341 bound_to 7243
  255.1366  311.0612  -66.2746 LP  0  0  0  0  0  0  0  0  0  0  0  0  # atno 27343 bound_to 17257
  254.4576  312.5511  -70.4051 LP  0  0  0  0  0  0  0  0  0  0  0  0  # atno 27344 bound_to 17260
  254.7800  310.9835  -71.0676 LP  0  0  0  0  0  0  0  0  0  0  0  0  # atno 27345 bound_to 17260
  256.0979  310.4722  -69.1198 LP  0  0  0  0  0  0  0  0  0  0  0  0  # atno 27346 bound_to 17313

> <Gold.Score>
     Fitness  S(hb_ext) S(vdw_ext)  S(hb_int)    S(int)      intcor
     30.95       0.00      23.44       0.00      -1.27      -0.76

> <Gold.Goldscore.Fitness>
30.9540

> <Gold.Goldscore.Internal.Vdw>
-1.5997

> <Gold.Goldscore.Internal.Torsion>
-0.4352

> <Gold.Goldscore.External.Vdw>
23.4388

> <Gold.Goldscore.Internal.HBond>
0.0000

> <Gold.Goldscore.External.HBond>
0.0000

> <Gold.Goldscore.Internal.Correction>
-0.7607

> <Gold.Goldscore.Internal.Vdw.Weighted>
-1.5997

> <Gold.Goldscore.Internal.Torsion.Weighted>
-0.4352

> <Gold.Goldscore.External.Vdw.Weighted>
32.2283

> <Gold.Goldscore.Internal.HBond.Weighted>
0.0000

> <Gold.Goldscore.External.HBond.Weighted>
0.0000

> <Gold.Goldscore.Internal.Correction.Weighted>
-0.7607

> <Gold.Rescore>
     Score     S(PLP)   S(hbond)     S(cho)   S(metal)  DE(clash)   DE(tors)     intcor
     31.48     -32.07       0.54       0.00       0.00       1.72       0.25       ----

> <Gold.PLP.Fitness>
31.4785

> <Gold.PLP.PLP>
-32.0688

> <Gold.PLP.part.hbond>
-1.7428

> <Gold.PLP.part.metal>
0.0000

> <Gold.PLP.part.buried>
-0.9459

> <Gold.PLP.part.nonpolar>
-30.5258

> <Gold.PLP.part.repulsive>
0.4113

> <Gold.PLP.ligand.clash>
1.7210

> <Gold.PLP.ligand.torsion>
0.2506

> <Gold.PLP.Chemscore.Hbond>
0.5440

> <Gold.PLP.Chemscore.CHOScore>
0.0000

> <Gold.PLP.Chemscore.Metal>
0.0000

> <Gold.PLP.Chemscore.Internal.Correction>
   9.000000E+99

