#       Name:                CT1002167954
#       Creating user name   hitesit
#       Creation time:       Sun Apr 16 02:28:05 2023


#       File generated by GOLD software.
#

@<TRIPOS>MOLECULE
CT1002167954|ligand_prepared|mol2|1|dock2
    29    30     1
SMALL
NO_CHARGES


@<TRIPOS>ATOM
      1 C1         257.0614 316.7460 -59.5868 C.3            1 RES1               0.0000
      2 C2         258.5492 316.4837 -59.2764 C.ar           1 RES1               0.0000
      3 C3         256.3376 315.4209 -59.3662 C.2            1 RES1               0.0000
      4 C4         256.6192 317.8606 -58.6451 C.2            1 RES1               0.0000
      5 C5         256.7987 317.2137 -61.0372 C.3            1 RES1               0.0000
      6 C6         258.9656 316.2184 -57.9753 C.ar           1 RES1               0.0000
      7 C7         259.5149 316.5011 -60.2793 C.ar           1 RES1               0.0000
      8 N8         255.5637 315.3019 -58.2496 N.am           1 RES1               0.0000
      9 O9         256.4754 314.4812 -60.1396 O.2            1 RES1               0.0000
     10 N10        255.6847 317.5604 -57.6889 N.am           1 RES1               0.0000
     11 O11        257.0838 318.9920 -58.7118 O.2            1 RES1               0.0000
     12 C12        255.3700 317.6718 -61.2845 C.3            1 RES1               0.0000
     13 C13        260.2986 315.9762 -57.6875 C.ar           1 RES1               0.0000
     14 C14        260.8474 316.2589 -59.9893 C.ar           1 RES1               0.0000
     15 C15        255.1596 316.3239 -57.4287 C.2            1 RES1               0.0000
     16 C16        261.2402 315.9959 -58.6942 C.ar           1 RES1               0.0000
     17 O17        254.3642 316.1223 -56.5156 O.2            1 RES1               0.0000
     18 H18        257.4801 318.0411 -61.2703 H              1 RES1               0.0000
     19 H19        257.0280 316.3876 -61.7216 H              1 RES1               0.0000
     20 H20        258.2392 316.2012 -57.1696 H              1 RES1               0.0000
     21 H21        259.2290 316.7069 -61.3052 H              1 RES1               0.0000
     22 H22        255.2571 314.3665 -58.0021 H              1 RES1               0.0000
     23 H23        255.3494 318.3299 -57.1182 H              1 RES1               0.0000
     24 H24        255.2399 317.9891 -62.3170 H              1 RES1               0.0000
     25 H25        254.6667 316.8655 -61.0866 H              1 RES1               0.0000
     26 H26        255.1161 318.5093 -60.6380 H              1 RES1               0.0000
     27 H27        260.6028 315.7711 -56.6664 H              1 RES1               0.0000
     28 H28        261.5852 316.2760 -60.7847 H              1 RES1               0.0000
     29 H29        262.2844 315.8058 -58.4686 H              1 RES1               0.0000
@<TRIPOS>BOND
    1    1    2 1     
    2    1    3 1     
    3    1    4 1     
    4    1    5 1     
    5    2    6 ar    
    6    2    7 ar    
    7    3    8 1     
    8    3    9 2     
    9    4   10 1     
   10    4   11 2     
   11    5   12 1     
   12    5   18 1     
   13    5   19 1     
   14    6   13 ar    
   15    6   20 1     
   16    7   14 ar    
   17    7   21 1     
   18    8   15 1     
   19    8   22 1     
   20   10   15 1     
   21   10   23 1     
   22   12   24 1     
   23   12   25 1     
   24   12   26 1     
   25   13   16 ar    
   26   13   27 1     
   27   14   16 ar    
   28   14   28 1     
   29   15   17 2     
   30   16   29 1     
@<TRIPOS>SUBSTRUCTURE
      1 RES1           1
@<TRIPOS>SET
DONOR_HYDROGENS      STATIC     ATOMS    <user>   **** ""
2 22 23
ATOM$RED        STATIC     ATOMS    COLORGROUP SYSTEM
2 22 23
@<TRIPOS>COMMENT
> <Gold.Version>
2022.3.0

> <Gold.Id.Protein>
unknown|7ts3_clean|pdb

> <Gold.Protein.RotatedTorsions>
[ 17130 17106 17107 17108 ] final  -47.84 input   41.13 | X-H torsion
[ 17186 17148 17149 17150 ] final -156.17 input  103.89 | X-H torsion
[ 18260 18245 18246 18247 ] final -149.54 input   44.49 | X-H torsion
[ 18335 18283 18284 18285 ] final  -97.60 input   36.74 | X-H torsion
[ 18422 18377 18378 18379 ] final  -76.84 input  100.26 | X-H torsion
[ 18430 18388 18387 18385 ] final  -88.10 input   60.03 | X-H torsion
[ 18490 18457 18458 18459 ] final  101.48 input   96.11 | X-H torsion
[ 18643 18610 18611 18612 ] final -116.23 input  123.23 | X-H torsion
[ 7420 7372 7373 7374 ] final  -11.53 input   96.91 | X-H torsion
[ 7454 7433 7434 7435 ] final  -71.69 input   88.26 | X-H torsion
[ 18226 18203 18204 18205 ] final -164.14 input   35.17 | X-H torsion
[ 18536 18521 18522 18523 ] final   16.60 input  122.93 | X-H torsion
[ 10035 10015 10014 10011 ] final  169.97 input   59.98 | X-H torsion
[ 18230 18208 18207 18204 ] final  -53.88 input   59.98 | X-H torsion
[ 18170 18128 18129 18130 ] final   13.61 input   43.95 | X-H torsion
[ 17239 17211 17212 17213 ] final   58.24 input   53.98 | X-H torsion
[ 10077 10062 10063 10064 ] final   56.18 input   19.45 | X-H torsion
[ 16922 16880 16879 16877 ] final   29.02 input   60.00 | X-H torsion
[ 11366 11344 11343 11340 ] final   42.98 input   59.97 | X-H torsion
[ 11421 11386 11387 11388 ] final -101.97 input   51.38 | X-H torsion
[ 17293 17257 17258 17259 ] final  123.37 input   68.80 | X-H torsion
[ 17355 17313 17314 17315 ] final   -6.37 input   88.03 | X-H torsion
[ 18704 18669 18670 18671 ] final   73.49 input   94.89 | X-H torsion
[ 22365 22344 22345 22346 ] final  -29.50 input   53.30 | X-H torsion
[ 27272 17055 17054 17053 ] final   46.26 input    0.00 | X-H torsion
[ 27276 18131 18130 18129 ] final -166.39 input    0.00 | X-H torsion
[ 27279 18248 18247 18246 ] final   28.19 input   -0.00 | X-H torsion
[ 27282 18286 18285 18284 ] final  -33.54 input    0.00 | X-H torsion
[ 27285 18380 18379 18378 ] final   70.29 input   -0.00 | X-H torsion
[ 27290 18460 18459 18458 ] final  102.13 input    0.00 | X-H torsion
[ 27304 18206 18205 18204 ] final  160.61 input    0.00 | X-H torsion
[ 27306 16948 16947 16946 ] final  -19.48 input   -0.00 | X-H torsion
[ 27311 16980 16979 16978 ] final  -85.65 input    0.00 | X-H torsion
[ 27315 17109 17108 17107 ] final -126.81 input    0.00 | X-H torsion
[ 27317 17151 17150 17149 ] final -140.73 input    0.00 | X-H torsion
[ 27322 10065 10064 10063 ] final -152.21 input    0.00 | X-H torsion
[ 27324 11342 11341 11340 ] final  -33.23 input    0.00 | X-H torsion
[ 27340 7243 7242 7241 ] final  138.48 input   -0.00 | X-H torsion
[ 27344 17260 17259 17258 ] final -100.84 input    0.00 | X-H torsion

> <Gold.Protein.ActiveResidues>
 MET341  HIS342  TRP414  ARG419  CYS420  VAL421  GLY422  LEU429  LEU460  SER462 
 ALA463  ILE464  SER482  GLN483  ARG486  TYR567  GLY568  LEU569  PRO570  ALA571 
 VAL572  SER573  ASN574  MET575  PRO588  PHE589  SER590  GLY591  TRP592  TYR593 
 MET594  GLY595  GLU597  ILE598  ARG601  ASP602  ARG608  ILE653  VAL654  TRP683 
 PHE709  TYR711  HEM801  H4B802 

> <Gold.Protein.RotatedAtoms>
  266.1554  320.3727  -60.7228 H   0  0  0  0  0  0  0  0  0  0  0  0  # atno 7420 bound_to 7372
  267.9279  320.5078  -59.0849 H   0  0  0  0  0  0  0  0  0  0  0  0  # atno 7454 bound_to 7433
  268.7536  310.9965  -57.5562 H   0  0  0  0  0  0  0  0  0  0  0  0  # atno 10035 bound_to 10015
  265.2423  307.3189  -58.8139 H   0  0  0  0  0  0  0  0  0  0  0  0  # atno 10077 bound_to 10062
  250.4712  312.5289  -62.3798 H   0  0  0  0  0  0  0  0  0  0  0  0  # atno 11366 bound_to 11344
  252.3786  310.6237  -63.2906 H   0  0  0  0  0  0  0  0  0  0  0  0  # atno 11421 bound_to 11386
  252.9976  312.9971  -56.6017 H   0  0  0  0  0  0  0  0  0  0  0  0  # atno 16922 bound_to 16880
  257.6274  311.6059  -58.5645 H   0  0  0  0  0  0  0  0  0  0  0  0  # atno 17130 bound_to 17106
  257.6617  311.3287  -60.7093 H   0  0  0  0  0  0  0  0  0  0  0  0  # atno 17186 bound_to 17148
  255.1371  310.5197  -64.1056 H   0  0  0  0  0  0  0  0  0  0  0  0  # atno 17239 bound_to 17211
  254.5409  310.7011  -66.0498 H   0  0  0  0  0  0  0  0  0  0  0  0  # atno 17293 bound_to 17257
  256.3032  310.3608  -68.9639 H   0  0  0  0  0  0  0  0  0  0  0  0  # atno 17355 bound_to 17313
  259.7100  308.3504  -63.2311 H   0  0  0  0  0  0  0  0  0  0  0  0  # atno 18170 bound_to 18128
  261.5013  308.6683  -61.1731 H   0  0  0  0  0  0  0  0  0  0  0  0  # atno 18226 bound_to 18203
  262.4459  306.7934  -59.1849 H   0  0  0  0  0  0  0  0  0  0  0  0  # atno 18230 bound_to 18208
  263.1067  310.2002  -58.3880 H   0  0  0  0  0  0  0  0  0  0  0  0  # atno 18260 bound_to 18245
  263.0328  312.1033  -55.4765 H   0  0  0  0  0  0  0  0  0  0  0  0  # atno 18335 bound_to 18283
  262.2775  314.5373  -53.4002 H   0  0  0  0  0  0  0  0  0  0  0  0  # atno 18422 bound_to 18377
  255.1590  313.9258  -55.5457 H   0  0  0  0  0  0  0  0  0  0  0  0  # atno 18430 bound_to 18388
  261.4800  318.2856  -53.9894 H   0  0  0  0  0  0  0  0  0  0  0  0  # atno 18490 bound_to 18457
  260.8653  321.1863  -51.2676 H   0  0  0  0  0  0  0  0  0  0  0  0  # atno 18536 bound_to 18521
  257.7223  322.8733  -53.4156 H   0  0  0  0  0  0  0  0  0  0  0  0  # atno 18643 bound_to 18610
  256.2715  320.5829  -51.7888 H   0  0  0  0  0  0  0  0  0  0  0  0  # atno 18704 bound_to 18669
  263.4142  317.9355  -48.6770 H   0  0  0  0  0  0  0  0  0  0  0  0  # atno 22365 bound_to 22344
  260.3248  310.6917  -56.9414 LP  0  0  0  0  0  0  0  0  0  0  0  0  # atno 27272 bound_to 17055
  260.1358  311.1308  -58.6062 LP  0  0  0  0  0  0  0  0  0  0  0  0  # atno 27273 bound_to 17055
  257.3850  310.2585  -57.4733 LP  0  0  0  0  0  0  0  0  0  0  0  0  # atno 27274 bound_to 17106
  258.4670  310.0695  -61.6160 LP  0  0  0  0  0  0  0  0  0  0  0  0  # atno 27275 bound_to 17148
  260.1765  310.2128  -60.6570 LP  0  0  0  0  0  0  0  0  0  0  0  0  # atno 27276 bound_to 18131
  259.6337  309.4760  -62.1276 LP  0  0  0  0  0  0  0  0  0  0  0  0  # atno 27277 bound_to 18131
  261.9557  311.0561  -57.3932 LP  0  0  0  0  0  0  0  0  0  0  0  0  # atno 27278 bound_to 18245
  263.2124  309.5123  -54.9259 LP  0  0  0  0  0  0  0  0  0  0  0  0  # atno 27279 bound_to 18248
  262.2503  310.6209  -54.0064 LP  0  0  0  0  0  0  0  0  0  0  0  0  # atno 27280 bound_to 18248
  264.5214  312.8621  -54.9593 LP  0  0  0  0  0  0  0  0  0  0  0  0  # atno 27281 bound_to 18283
  263.8408  315.0822  -54.8010 LP  0  0  0  0  0  0  0  0  0  0  0  0  # atno 27282 bound_to 18286
  262.2982  315.8657  -54.8826 LP  0  0  0  0  0  0  0  0  0  0  0  0  # atno 27283 bound_to 18286
  261.3285  314.1301  -51.9896 LP  0  0  0  0  0  0  0  0  0  0  0  0  # atno 27284 bound_to 18377
  263.3036  316.5301  -51.3491 LP  0  0  0  0  0  0  0  0  0  0  0  0  # atno 27285 bound_to 18380
  262.2505  317.5699  -50.4493 LP  0  0  0  0  0  0  0  0  0  0  0  0  # atno 27286 bound_to 18380
  254.5198  315.3929  -55.2503 LP  0  0  0  0  0  0  0  0  0  0  0  0  # atno 27287 bound_to 18388
  254.2953  314.1725  -54.1888 LP  0  0  0  0  0  0  0  0  0  0  0  0  # atno 27288 bound_to 18388
  261.6489  317.5043  -52.4353 LP  0  0  0  0  0  0  0  0  0  0  0  0  # atno 27289 bound_to 18457
  258.9107  319.0987  -51.9732 LP  0  0  0  0  0  0  0  0  0  0  0  0  # atno 27290 bound_to 18460
  259.1970  320.4741  -52.9863 LP  0  0  0  0  0  0  0  0  0  0  0  0  # atno 27291 bound_to 18460
  257.8323  321.4094  -52.4762 LP  0  0  0  0  0  0  0  0  0  0  0  0  # atno 27292 bound_to 18610
  265.3802  321.9259  -60.9176 LP  0  0  0  0  0  0  0  0  0  0  0  0  # atno 27301 bound_to 7372
  266.5431  319.4566  -59.2529 LP  0  0  0  0  0  0  0  0  0  0  0  0  # atno 27302 bound_to 7433
  263.1899  308.6907  -60.7229 LP  0  0  0  0  0  0  0  0  0  0  0  0  # atno 27303 bound_to 18203
  265.0360  309.8939  -58.5095 LP  0  0  0  0  0  0  0  0  0  0  0  0  # atno 27304 bound_to 18206
  264.3086  308.4686  -59.1723 LP  0  0  0  0  0  0  0  0  0  0  0  0  # atno 27305 bound_to 18206
  259.2989  311.6771  -50.6356 LP  0  0  0  0  0  0  0  0  0  0  0  0  # atno 27306 bound_to 16948
  259.6878  310.7747  -52.0619 LP  0  0  0  0  0  0  0  0  0  0  0  0  # atno 27307 bound_to 16948
  261.3075  319.8404  -50.2488 LP  0  0  0  0  0  0  0  0  0  0  0  0  # atno 27308 bound_to 18521
  268.1488  310.1425  -56.3101 LP  0  0  0  0  0  0  0  0  0  0  0  0  # atno 27309 bound_to 10015
  267.1426  310.8358  -57.3934 LP  0  0  0  0  0  0  0  0  0  0  0  0  # atno 27310 bound_to 10015
  256.5929  309.0969  -55.7999 LP  0  0  0  0  0  0  0  0  0  0  0  0  # atno 27311 bound_to 16980
  255.7561  310.2386  -54.8017 LP  0  0  0  0  0  0  0  0  0  0  0  0  # atno 27312 bound_to 16980
  261.7385  306.2613  -57.8190 LP  0  0  0  0  0  0  0  0  0  0  0  0  # atno 27313 bound_to 18208
  262.9724  307.3281  -57.7406 LP  0  0  0  0  0  0  0  0  0  0  0  0  # atno 27314 bound_to 18208
  255.8214  309.2034  -61.7386 LP  0  0  0  0  0  0  0  0  0  0  0  0  # atno 27315 bound_to 17109
  255.3668  309.8067  -60.1799 LP  0  0  0  0  0  0  0  0  0  0  0  0  # atno 27316 bound_to 17109
  258.2883  309.2683  -65.0644 LP  0  0  0  0  0  0  0  0  0  0  0  0  # atno 27317 bound_to 17151
  258.8342  309.3322  -63.4219 LP  0  0  0  0  0  0  0  0  0  0  0  0  # atno 27318 bound_to 17151
  260.6150  307.2798  -64.2809 LP  0  0  0  0  0  0  0  0  0  0  0  0  # atno 27319 bound_to 18128
  256.8388  310.1436  -63.9914 LP  0  0  0  0  0  0  0  0  0  0  0  0  # atno 27320 bound_to 17211
  266.9719  307.2203  -58.9973 LP  0  0  0  0  0  0  0  0  0  0  0  0  # atno 27321 bound_to 10062
  263.3301  306.7402  -61.7001 LP  0  0  0  0  0  0  0  0  0  0  0  0  # atno 27322 bound_to 10065
  264.2674  307.6063  -60.5290 LP  0  0  0  0  0  0  0  0  0  0  0  0  # atno 27323 bound_to 10065
  253.9310  311.1610  -64.7977 LP  0  0  0  0  0  0  0  0  0  0  0  0  # atno 27324 bound_to 11342
  254.3261  311.6696  -63.1899 LP  0  0  0  0  0  0  0  0  0  0  0  0  # atno 27325 bound_to 11342
  252.4870  314.1842  -55.6127 LP  0  0  0  0  0  0  0  0  0  0  0  0  # atno 27326 bound_to 16880
  251.4148  313.1284  -56.2470 LP  0  0  0  0  0  0  0  0  0  0  0  0  # atno 27327 bound_to 16880
  249.0936  312.5033  -63.2461 LP  0  0  0  0  0  0  0  0  0  0  0  0  # atno 27335 bound_to 11344
  249.8554  313.9191  -62.9603 LP  0  0  0  0  0  0  0  0  0  0  0  0  # atno 27336 bound_to 11344
  251.3289  311.0410  -61.9529 LP  0  0  0  0  0  0  0  0  0  0  0  0  # atno 27337 bound_to 11386
  263.1723  321.6510  -62.4377 LP  0  0  0  0  0  0  0  0  0  0  0  0  # atno 27340 bound_to 7243
  263.2790  323.3261  -62.8654 LP  0  0  0  0  0  0  0  0  0  0  0  0  # atno 27341 bound_to 7243
  255.7393  309.7365  -66.8729 LP  0  0  0  0  0  0  0  0  0  0  0  0  # atno 27343 bound_to 17257
  254.9348  311.0512  -71.1070 LP  0  0  0  0  0  0  0  0  0  0  0  0  # atno 27344 bound_to 17260
  254.3027  312.4833  -70.3657 LP  0  0  0  0  0  0  0  0  0  0  0  0  # atno 27345 bound_to 17260
  256.1213  311.8944  -68.1593 LP  0  0  0  0  0  0  0  0  0  0  0  0  # atno 27346 bound_to 17313

> <Gold.Score>
     Fitness  S(hb_ext) S(vdw_ext)  S(hb_int)    S(int)      intcor
     42.63       3.50      28.65       0.00      -0.26      -0.76

> <Gold.Goldscore.Fitness>
42.6341

> <Gold.Goldscore.Internal.Vdw>
-0.5378

> <Gold.Goldscore.Internal.Torsion>
-0.4846

> <Gold.Goldscore.External.Vdw>
28.6507

> <Gold.Goldscore.Internal.HBond>
0.0000

> <Gold.Goldscore.External.HBond>
3.5011

> <Gold.Goldscore.Internal.Correction>
-0.7607

> <Gold.Goldscore.Hbonds>
donor molecule, donor type, donor heavy atom, donor atom, acceptor molecule, acceptor atom, score
      P1  H 11393 11427       L1    17  0.19
      L1  H     8    22       P1 11394  0.52

> <Gold.Goldscore.Internal.Vdw.Weighted>
-0.5378

> <Gold.Goldscore.Internal.Torsion.Weighted>
-0.4846

> <Gold.Goldscore.External.Vdw.Weighted>
39.3947

> <Gold.Goldscore.Internal.HBond.Weighted>
0.0000

> <Gold.Goldscore.External.HBond.Weighted>
3.5011

> <Gold.Goldscore.Internal.Correction.Weighted>
-0.7607

> <Gold.Rescore>
     Score     S(PLP)   S(hbond)     S(cho)   S(metal)  DE(clash)   DE(tors)     intcor
     -0.84      -0.54       0.15       0.00       0.00       0.00       0.91       ----

> <Gold.PLP.Fitness>
-0.8351

> <Gold.PLP.PLP>
-0.5415

> <Gold.PLP.part.hbond>
-3.8235

> <Gold.PLP.part.metal>
0.0000

> <Gold.PLP.part.buried>
33.3556

> <Gold.PLP.part.nonpolar>
-44.2852

> <Gold.PLP.part.repulsive>
15.0347

> <Gold.PLP.ligand.clash>
0.0000

> <Gold.PLP.ligand.torsion>
0.9133

> <Gold.PLP.Chemscore.Hbond>
0.1500

> <Gold.PLP.Chemscore.CHOScore>
0.0000

> <Gold.PLP.Chemscore.Metal>
0.0000

> <Gold.Chemscore.Hbonds>
donor molecule, donor type, donor heavy atom, donor atom, acceptor molecule, acceptor atom, score
      L1  H     8    22       P1 11394  0.50

> <Gold.PLP.Chemscore.Internal.Correction>
   9.000000E+99

