#       Name:                CT1002167954
#       Creating user name   hitesit
#       Creation time:       Sun Apr 16 02:28:10 2023


#       File generated by GOLD software.
#

@<TRIPOS>MOLECULE
CT1002167954|ligand_prepared|mol2|1|dock8
    29    30     1
SMALL
NO_CHARGES


@<TRIPOS>ATOM
      1 C1         255.8572 316.8723 -63.4391 C.3            1 RES1               0.0000
      2 C2         257.0766 316.7430 -62.5037 C.ar           1 RES1               0.0000
      3 C3         256.2493 317.8775 -64.5180 C.2            1 RES1               0.0000
      4 C4         255.5748 315.4704 -63.9680 C.2            1 RES1               0.0000
      5 C5         254.5795 317.3829 -62.7331 C.3            1 RES1               0.0000
      6 C6         256.9152 316.7664 -61.1216 C.ar           1 RES1               0.0000
      7 C7         258.3666 316.5975 -63.0072 C.ar           1 RES1               0.0000
      8 N8         256.5194 317.3937 -65.7641 N.am           1 RES1               0.0000
      9 O9         256.3584 319.0719 -64.2692 O.2            1 RES1               0.0000
     10 N10        255.7466 315.2432 -65.3084 N.am           1 RES1               0.0000
     11 O11        255.2210 314.5564 -63.2334 O.2            1 RES1               0.0000
     12 C12        253.4295 317.6765 -63.6836 C.3            1 RES1               0.0000
     13 C13        258.0035 316.6456 -60.2735 C.ar           1 RES1               0.0000
     14 C14        259.4536 316.4771 -62.1572 C.ar           1 RES1               0.0000
     15 C15        256.2357 316.1334 -66.2252 C.2            1 RES1               0.0000
     16 C16        259.2732 316.5004 -60.7906 C.ar           1 RES1               0.0000
     17 O17        256.4135 315.8381 -67.4035 O.2            1 RES1               0.0000
     18 H18        254.2529 316.6294 -62.0058 H              1 RES1               0.0000
     19 H19        254.8234 318.2986 -62.1805 H              1 RES1               0.0000
     20 H20        255.9238 316.8822 -60.6964 H              1 RES1               0.0000
     21 H21        258.5324 316.5776 -64.0789 H              1 RES1               0.0000
     22 H22        256.9745 318.0277 -66.4132 H              1 RES1               0.0000
     23 H23        255.4857 314.3255 -65.6548 H              1 RES1               0.0000
     24 H24        252.5583 318.0315 -63.1369 H              1 RES1               0.0000
     25 H25        253.7111 318.4404 -64.4054 H              1 RES1               0.0000
     26 H26        253.1439 316.7810 -64.2317 H              1 RES1               0.0000
     27 H27        257.8564 316.6659 -59.1987 H              1 RES1               0.0000
     28 H28        260.4511 316.3637 -62.5686 H              1 RES1               0.0000
     29 H29        260.1255 316.4054 -60.1259 H              1 RES1               0.0000
@<TRIPOS>BOND
    1    1    2 1     
    2    1    3 1     
    3    1    4 1     
    4    1    5 1     
    5    2    6 ar    
    6    2    7 ar    
    7    3    8 1     
    8    3    9 2     
    9    4   10 1     
   10    4   11 2     
   11    5   12 1     
   12    5   18 1     
   13    5   19 1     
   14    6   13 ar    
   15    6   20 1     
   16    7   14 ar    
   17    7   21 1     
   18    8   15 1     
   19    8   22 1     
   20   10   15 1     
   21   10   23 1     
   22   12   24 1     
   23   12   25 1     
   24   12   26 1     
   25   13   16 ar    
   26   13   27 1     
   27   14   16 ar    
   28   14   28 1     
   29   15   17 2     
   30   16   29 1     
@<TRIPOS>SUBSTRUCTURE
      1 RES1           1
@<TRIPOS>SET
DONOR_HYDROGENS      STATIC     ATOMS    <user>   **** ""
2 22 23
ATOM$RED        STATIC     ATOMS    COLORGROUP SYSTEM
2 22 23
@<TRIPOS>COMMENT
> <Gold.Version>
2022.3.0

> <Gold.Id.Protein>
unknown|7ts3_clean|pdb

> <Gold.Protein.RotatedTorsions>
[ 17130 17106 17107 17108 ] final  -74.54 input   41.13 | X-H torsion
[ 17186 17148 17149 17150 ] final  130.29 input  103.89 | X-H torsion
[ 18260 18245 18246 18247 ] final -106.72 input   44.49 | X-H torsion
[ 18335 18283 18284 18285 ] final  162.76 input   36.74 | X-H torsion
[ 18422 18377 18378 18379 ] final -106.52 input  100.26 | X-H torsion
[ 18430 18388 18387 18385 ] final   28.44 input   60.03 | X-H torsion
[ 18490 18457 18458 18459 ] final  -11.98 input   96.11 | X-H torsion
[ 18643 18610 18611 18612 ] final  145.32 input  123.23 | X-H torsion
[ 7420 7372 7373 7374 ] final  -20.12 input   96.91 | X-H torsion
[ 7454 7433 7434 7435 ] final   -0.72 input   88.26 | X-H torsion
[ 18226 18203 18204 18205 ] final -105.71 input   35.17 | X-H torsion
[ 18536 18521 18522 18523 ] final  112.90 input  122.93 | X-H torsion
[ 10035 10015 10014 10011 ] final  -96.56 input   59.98 | X-H torsion
[ 18230 18208 18207 18204 ] final -125.33 input   59.98 | X-H torsion
[ 18170 18128 18129 18130 ] final -168.10 input   43.95 | X-H torsion
[ 17239 17211 17212 17213 ] final -178.76 input   53.98 | X-H torsion
[ 10077 10062 10063 10064 ] final   18.64 input   19.45 | X-H torsion
[ 16922 16880 16879 16877 ] final  -60.33 input   60.00 | X-H torsion
[ 11366 11344 11343 11340 ] final    8.65 input   59.97 | X-H torsion
[ 11421 11386 11387 11388 ] final   28.01 input   51.38 | X-H torsion
[ 17293 17257 17258 17259 ] final  -52.01 input   68.80 | X-H torsion
[ 17355 17313 17314 17315 ] final  152.49 input   88.03 | X-H torsion
[ 18704 18669 18670 18671 ] final   39.53 input   94.89 | X-H torsion
[ 22365 22344 22345 22346 ] final  -25.49 input   53.30 | X-H torsion
[ 27272 17055 17054 17053 ] final -138.24 input    0.00 | X-H torsion
[ 27276 18131 18130 18129 ] final -158.01 input    0.00 | X-H torsion
[ 27279 18248 18247 18246 ] final -139.13 input   -0.00 | X-H torsion
[ 27282 18286 18285 18284 ] final  -69.83 input    0.00 | X-H torsion
[ 27285 18380 18379 18378 ] final    9.98 input   -0.00 | X-H torsion
[ 27290 18460 18459 18458 ] final  -98.96 input    0.00 | X-H torsion
[ 27304 18206 18205 18204 ] final  -17.14 input    0.00 | X-H torsion
[ 27306 16948 16947 16946 ] final -154.64 input   -0.00 | X-H torsion
[ 27311 16980 16979 16978 ] final -161.84 input    0.00 | X-H torsion
[ 27315 17109 17108 17107 ] final  159.19 input    0.00 | X-H torsion
[ 27317 17151 17150 17149 ] final  130.42 input    0.00 | X-H torsion
[ 27322 10065 10064 10063 ] final   71.71 input    0.00 | X-H torsion
[ 27324 11342 11341 11340 ] final  161.35 input    0.00 | X-H torsion
[ 27340 7243 7242 7241 ] final  169.82 input   -0.00 | X-H torsion
[ 27344 17260 17259 17258 ] final   -7.62 input    0.00 | X-H torsion

> <Gold.Protein.ActiveResidues>
 MET341  HIS342  TRP414  ARG419  CYS420  VAL421  GLY422  LEU429  LEU460  SER462 
 ALA463  ILE464  SER482  GLN483  ARG486  TYR567  GLY568  LEU569  PRO570  ALA571 
 VAL572  SER573  ASN574  MET575  PRO588  PHE589  SER590  GLY591  TRP592  TYR593 
 MET594  GLY595  GLU597  ILE598  ARG601  ASP602  ARG608  ILE653  VAL654  TRP683 
 PHE709  TYR711  HEM801  H4B802 

> <Gold.Protein.RotatedAtoms>
  266.2326  320.4097  -60.8238 H   0  0  0  0  0  0  0  0  0  0  0  0  # atno 7420 bound_to 7372
  267.7693  319.8519  -59.8554 H   0  0  0  0  0  0  0  0  0  0  0  0  # atno 7454 bound_to 7433
  267.3966  311.0343  -57.6799 H   0  0  0  0  0  0  0  0  0  0  0  0  # atno 10035 bound_to 10015
  265.3929  307.6123  -59.2689 H   0  0  0  0  0  0  0  0  0  0  0  0  # atno 10077 bound_to 10062
  250.1094  312.1500  -62.5564 H   0  0  0  0  0  0  0  0  0  0  0  0  # atno 11366 bound_to 11344
  251.2319  310.3455  -62.1896 H   0  0  0  0  0  0  0  0  0  0  0  0  # atno 11421 bound_to 11386
  252.9241  314.0349  -55.7950 H   0  0  0  0  0  0  0  0  0  0  0  0  # atno 16922 bound_to 16880
  257.9989  311.5514  -58.3968 H   0  0  0  0  0  0  0  0  0  0  0  0  # atno 17130 bound_to 17106
  258.6043  311.3959  -61.1885 H   0  0  0  0  0  0  0  0  0  0  0  0  # atno 17186 bound_to 17148
  256.3342  309.8232  -63.4106 H   0  0  0  0  0  0  0  0  0  0  0  0  # atno 17239 bound_to 17211
  255.7908  309.7869  -66.8752 H   0  0  0  0  0  0  0  0  0  0  0  0  # atno 17293 bound_to 17257
  256.3578  311.7666  -67.9851 H   0  0  0  0  0  0  0  0  0  0  0  0  # atno 17355 bound_to 17313
  260.6590  307.2869  -64.3030 H   0  0  0  0  0  0  0  0  0  0  0  0  # atno 18170 bound_to 18128
  261.9576  309.3920  -61.2855 H   0  0  0  0  0  0  0  0  0  0  0  0  # atno 18226 bound_to 18203
  261.7332  306.2148  -58.5903 H   0  0  0  0  0  0  0  0  0  0  0  0  # atno 18230 bound_to 18208
  262.8810  309.8267  -57.9160 H   0  0  0  0  0  0  0  0  0  0  0  0  # atno 18260 bound_to 18245
  264.1780  311.7960  -54.8191 H   0  0  0  0  0  0  0  0  0  0  0  0  # atno 18335 bound_to 18283
  261.9072  314.3335  -53.5642 H   0  0  0  0  0  0  0  0  0  0  0  0  # atno 18422 bound_to 18377
  254.3225  314.1249  -54.2053 H   0  0  0  0  0  0  0  0  0  0  0  0  # atno 18430 bound_to 18388
  260.8029  317.8161  -52.7619 H   0  0  0  0  0  0  0  0  0  0  0  0  # atno 18490 bound_to 18457
  261.5639  320.9740  -50.1798 H   0  0  0  0  0  0  0  0  0  0  0  0  # atno 18536 bound_to 18521
  258.4879  321.7966  -53.3223 H   0  0  0  0  0  0  0  0  0  0  0  0  # atno 18643 bound_to 18610
  256.0419  321.0336  -51.8980 H   0  0  0  0  0  0  0  0  0  0  0  0  # atno 18704 bound_to 18669
  263.3902  317.9530  -48.7313 H   0  0  0  0  0  0  0  0  0  0  0  0  # atno 22365 bound_to 22344
  260.1268  311.0648  -58.6198 LP  0  0  0  0  0  0  0  0  0  0  0  0  # atno 27272 bound_to 17055
  260.3338  310.7577  -56.9278 LP  0  0  0  0  0  0  0  0  0  0  0  0  # atno 27273 bound_to 17055
  257.0259  310.3111  -57.6354 LP  0  0  0  0  0  0  0  0  0  0  0  0  # atno 27274 bound_to 17106
  257.5474  310.0039  -61.1486 LP  0  0  0  0  0  0  0  0  0  0  0  0  # atno 27275 bound_to 17148
  260.2245  310.3035  -60.7311 LP  0  0  0  0  0  0  0  0  0  0  0  0  # atno 27276 bound_to 18131
  259.5857  309.3853  -62.0535 LP  0  0  0  0  0  0  0  0  0  0  0  0  # atno 27277 bound_to 18131
  262.1775  311.4231  -57.8570 LP  0  0  0  0  0  0  0  0  0  0  0  0  # atno 27278 bound_to 18245
  262.1253  310.5980  -54.1493 LP  0  0  0  0  0  0  0  0  0  0  0  0  # atno 27279 bound_to 18248
  263.3373  309.5352  -54.7830 LP  0  0  0  0  0  0  0  0  0  0  0  0  # atno 27280 bound_to 18248
  263.4093  313.1605  -55.5976 LP  0  0  0  0  0  0  0  0  0  0  0  0  # atno 27281 bound_to 18283
  263.8394  315.4879  -54.4455 LP  0  0  0  0  0  0  0  0  0  0  0  0  # atno 27282 bound_to 18286
  262.2996  315.4600  -55.2381 LP  0  0  0  0  0  0  0  0  0  0  0  0  # atno 27283 bound_to 18286
  261.6896  314.3288  -51.8296 LP  0  0  0  0  0  0  0  0  0  0  0  0  # atno 27284 bound_to 18377
  262.6382  316.1951  -50.8995 LP  0  0  0  0  0  0  0  0  0  0  0  0  # atno 27285 bound_to 18380
  262.9159  317.9048  -50.8989 LP  0  0  0  0  0  0  0  0  0  0  0  0  # atno 27286 bound_to 18380
  255.1677  313.9649  -55.5866 LP  0  0  0  0  0  0  0  0  0  0  0  0  # atno 27287 bound_to 18388
  254.4900  315.4000  -55.2024 LP  0  0  0  0  0  0  0  0  0  0  0  0  # atno 27288 bound_to 18388
  262.3102  317.9629  -53.6341 LP  0  0  0  0  0  0  0  0  0  0  0  0  # atno 27289 bound_to 18457
  259.0477  320.6115  -52.7428 LP  0  0  0  0  0  0  0  0  0  0  0  0  # atno 27290 bound_to 18460
  259.0600  318.9614  -52.2166 LP  0  0  0  0  0  0  0  0  0  0  0  0  # atno 27291 bound_to 18460
  257.0720  322.4786  -52.5688 LP  0  0  0  0  0  0  0  0  0  0  0  0  # atno 27292 bound_to 18610
  265.3048  321.8897  -60.8187 LP  0  0  0  0  0  0  0  0  0  0  0  0  # atno 27301 bound_to 7372
  266.6986  320.0993  -58.4977 LP  0  0  0  0  0  0  0  0  0  0  0  0  # atno 27302 bound_to 7433
  262.7441  307.9836  -60.6130 LP  0  0  0  0  0  0  0  0  0  0  0  0  # atno 27303 bound_to 18203
  264.3074  308.4841  -59.2025 LP  0  0  0  0  0  0  0  0  0  0  0  0  # atno 27304 bound_to 18206
  265.0372  309.8784  -58.4792 LP  0  0  0  0  0  0  0  0  0  0  0  0  # atno 27305 bound_to 18206
  259.3389  311.3194  -52.1957 LP  0  0  0  0  0  0  0  0  0  0  0  0  # atno 27306 bound_to 16948
  259.6479  311.1324  -50.5017 LP  0  0  0  0  0  0  0  0  0  0  0  0  # atno 27307 bound_to 16948
  260.6198  320.0494  -51.3195 LP  0  0  0  0  0  0  0  0  0  0  0  0  # atno 27308 bound_to 18521
  268.9403  310.7857  -57.2296 LP  0  0  0  0  0  0  0  0  0  0  0  0  # atno 27309 bound_to 10015
  267.7182  310.1545  -56.3494 LP  0  0  0  0  0  0  0  0  0  0  0  0  # atno 27310 bound_to 10015
  256.3644  310.1181  -56.0157 LP  0  0  0  0  0  0  0  0  0  0  0  0  # atno 27311 bound_to 16980
  255.9846  309.2173  -54.5859 LP  0  0  0  0  0  0  0  0  0  0  0  0  # atno 27312 bound_to 16980
  262.4672  306.9180  -57.3191 LP  0  0  0  0  0  0  0  0  0  0  0  0  # atno 27313 bound_to 18208
  262.9611  307.2538  -58.8390 LP  0  0  0  0  0  0  0  0  0  0  0  0  # atno 27314 bound_to 18208
  255.4480  310.1510  -61.5172 LP  0  0  0  0  0  0  0  0  0  0  0  0  # atno 27315 bound_to 17109
  255.7403  308.8590  -60.4013 LP  0  0  0  0  0  0  0  0  0  0  0  0  # atno 27316 bound_to 17109
  258.1488  308.5532  -64.0955 LP  0  0  0  0  0  0  0  0  0  0  0  0  # atno 27317 bound_to 17151
  258.9737  310.0473  -64.3909 LP  0  0  0  0  0  0  0  0  0  0  0  0  # atno 27318 bound_to 17151
  259.7005  308.3047  -63.2480 LP  0  0  0  0  0  0  0  0  0  0  0  0  # atno 27319 bound_to 18128
  255.6645  310.8270  -64.6732 LP  0  0  0  0  0  0  0  0  0  0  0  0  # atno 27320 bound_to 17211
  266.8220  306.9282  -58.5445 LP  0  0  0  0  0  0  0  0  0  0  0  0  # atno 27321 bound_to 10062
  264.4104  307.7860  -61.1346 LP  0  0  0  0  0  0  0  0  0  0  0  0  # atno 27322 bound_to 10065
  263.1872  306.5604  -61.0945 LP  0  0  0  0  0  0  0  0  0  0  0  0  # atno 27323 bound_to 10065
  254.3708  311.4559  -63.1633 LP  0  0  0  0  0  0  0  0  0  0  0  0  # atno 27324 bound_to 11342
  253.8863  311.3746  -64.8243 LP  0  0  0  0  0  0  0  0  0  0  0  0  # atno 27325 bound_to 11342
  251.3870  313.5211  -55.9417 LP  0  0  0  0  0  0  0  0  0  0  0  0  # atno 27326 bound_to 16880
  252.5888  312.7463  -56.7304 LP  0  0  0  0  0  0  0  0  0  0  0  0  # atno 27327 bound_to 16880
  249.0165  313.0405  -63.3696 LP  0  0  0  0  0  0  0  0  0  0  0  0  # atno 27335 bound_to 11344
  250.2968  313.7634  -62.6590 LP  0  0  0  0  0  0  0  0  0  0  0  0  # atno 27336 bound_to 11344
  252.4367  311.3098  -63.0165 LP  0  0  0  0  0  0  0  0  0  0  0  0  # atno 27337 bound_to 11386
  263.5329  321.8212  -62.1930 LP  0  0  0  0  0  0  0  0  0  0  0  0  # atno 27340 bound_to 7243
  262.9184  323.1559  -63.1101 LP  0  0  0  0  0  0  0  0  0  0  0  0  # atno 27341 bound_to 7243
  254.5058  310.6387  -66.0584 LP  0  0  0  0  0  0  0  0  0  0  0  0  # atno 27343 bound_to 17257
  253.8573  311.3964  -70.5555 LP  0  0  0  0  0  0  0  0  0  0  0  0  # atno 27344 bound_to 17260
  255.3802  312.1381  -70.9171 LP  0  0  0  0  0  0  0  0  0  0  0  0  # atno 27345 bound_to 17260
  256.0668  310.4922  -69.1355 LP  0  0  0  0  0  0  0  0  0  0  0  0  # atno 27346 bound_to 17313

> <Gold.Score>
     Fitness  S(hb_ext) S(vdw_ext)  S(hb_int)    S(int)      intcor
     39.36       9.36      22.32       0.00      -0.70      -0.76

> <Gold.Goldscore.Fitness>
39.3587

> <Gold.Goldscore.Internal.Vdw>
-1.0053

> <Gold.Goldscore.Internal.Torsion>
-0.4556

> <Gold.Goldscore.External.Vdw>
22.3247

> <Gold.Goldscore.Internal.HBond>
0.0000

> <Gold.Goldscore.External.HBond>
9.3647

> <Gold.Goldscore.Internal.Correction>
-0.7585

> <Gold.Goldscore.Hbonds>
donor molecule, donor type, donor heavy atom, donor atom, acceptor molecule, acceptor atom, score
      L1  H     8    22       P1 26873  0.47
      L1  H     8    22       P1 25983  0.38
      L1  H    10    23       P1 17264  0.71

> <Gold.Goldscore.Internal.Vdw.Weighted>
-1.0053

> <Gold.Goldscore.Internal.Torsion.Weighted>
-0.4556

> <Gold.Goldscore.External.Vdw.Weighted>
30.6964

> <Gold.Goldscore.Internal.HBond.Weighted>
0.0000

> <Gold.Goldscore.External.HBond.Weighted>
9.3647

> <Gold.Goldscore.Internal.Correction.Weighted>
-0.7585

> <Gold.Rescore>
     Score     S(PLP)   S(hbond)     S(cho)   S(metal)  DE(clash)   DE(tors)     intcor
     28.06     -26.78       0.71       0.00       0.00       0.00       0.43       ----

> <Gold.PLP.Fitness>
28.0633

> <Gold.PLP.PLP>
-26.7828

> <Gold.PLP.part.hbond>
-0.5623

> <Gold.PLP.part.metal>
0.0000

> <Gold.PLP.part.buried>
2.0440

> <Gold.PLP.part.nonpolar>
-30.4858

> <Gold.PLP.part.repulsive>
0.4968

> <Gold.PLP.ligand.clash>
0.0000

> <Gold.PLP.ligand.torsion>
0.4323

> <Gold.PLP.Chemscore.Hbond>
0.7150

> <Gold.PLP.Chemscore.CHOScore>
0.0000

> <Gold.PLP.Chemscore.Metal>
0.0000

> <Gold.Chemscore.Hbonds>
donor molecule, donor type, donor heavy atom, donor atom, acceptor molecule, acceptor atom, score
      L1  H     8    22       P1 25983  0.87
      L1  H    10    23       P1 17264  0.99

> <Gold.PLP.Chemscore.Internal.Correction>
   9.000000E+99

