#       Name:                CT1002167954
#       Creating user name   hitesit
#       Creation time:       Sun Apr 16 02:28:11 2023


#       File generated by GOLD software.
#

@<TRIPOS>MOLECULE
CT1002167954|ligand_prepared|mol2|1|dock10
    29    30     1
SMALL
NO_CHARGES


@<TRIPOS>ATOM
      1 C1         255.9035 317.4255 -62.9118 C.3            1 RES1               0.0000
      2 C2         257.0290 317.0012 -61.9464 C.ar           1 RES1               0.0000
      3 C3         256.5339 318.3991 -63.9032 C.2            1 RES1               0.0000
      4 C4         255.3802 316.1422 -63.5473 C.2            1 RES1               0.0000
      5 C5         254.7170 318.1325 -62.2160 C.3            1 RES1               0.0000
      6 C6         256.7403 316.6559 -60.6295 C.ar           1 RES1               0.0000
      7 C7         258.3580 316.9477 -62.3581 C.ar           1 RES1               0.0000
      8 N8         256.7640 317.9502 -65.1703 N.am           1 RES1               0.0000
      9 O9         256.8605 319.5309 -63.5676 O.2            1 RES1               0.0000
     10 N10        255.5682 315.9694 -64.8936 N.am           1 RES1               0.0000
     11 O11        254.8215 315.2717 -62.8913 O.2            1 RES1               0.0000
     12 C12        253.7704 318.8322 -63.1785 C.3            1 RES1               0.0000
     13 C13        257.7434 316.2683 -59.7566 C.ar           1 RES1               0.0000
     14 C14        259.3596 316.5601 -61.4835 C.ar           1 RES1               0.0000
     15 C15        256.2635 316.8013 -65.7283 C.2            1 RES1               0.0000
     16 C16        259.0535 316.2197 -60.1831 C.ar           1 RES1               0.0000
     17 O17        256.4364 316.5507 -66.9176 O.2            1 RES1               0.0000
     18 H18        254.1507 317.3890 -61.6416 H              1 RES1               0.0000
     19 H19        255.1122 318.8724 -61.5091 H              1 RES1               0.0000
     20 H20        255.7154 316.6905 -60.2753 H              1 RES1               0.0000
     21 H21        258.6223 317.2122 -63.3764 H              1 RES1               0.0000
     22 H22        257.3636 318.5214 -65.7571 H              1 RES1               0.0000
     23 H23        255.1510 315.1442 -65.3124 H              1 RES1               0.0000
     24 H24        252.9564 319.3116 -62.6388 H              1 RES1               0.0000
     25 H25        254.2950 319.5959 -63.7487 H              1 RES1               0.0000
     26 H26        253.3392 318.1214 -63.8805 H              1 RES1               0.0000
     27 H27        257.4974 316.0027 -58.7338 H              1 RES1               0.0000
     28 H28        260.3894 316.5239 -61.8233 H              1 RES1               0.0000
     29 H29        259.8391 315.9157 -59.4992 H              1 RES1               0.0000
@<TRIPOS>BOND
    1    1    2 1     
    2    1    3 1     
    3    1    4 1     
    4    1    5 1     
    5    2    6 ar    
    6    2    7 ar    
    7    3    8 1     
    8    3    9 2     
    9    4   10 1     
   10    4   11 2     
   11    5   12 1     
   12    5   18 1     
   13    5   19 1     
   14    6   13 ar    
   15    6   20 1     
   16    7   14 ar    
   17    7   21 1     
   18    8   15 1     
   19    8   22 1     
   20   10   15 1     
   21   10   23 1     
   22   12   24 1     
   23   12   25 1     
   24   12   26 1     
   25   13   16 ar    
   26   13   27 1     
   27   14   16 ar    
   28   14   28 1     
   29   15   17 2     
   30   16   29 1     
@<TRIPOS>SUBSTRUCTURE
      1 RES1           1
@<TRIPOS>SET
DONOR_HYDROGENS      STATIC     ATOMS    <user>   **** ""
2 22 23
ATOM$RED        STATIC     ATOMS    COLORGROUP SYSTEM
2 22 23
@<TRIPOS>COMMENT
> <Gold.Version>
2022.3.0

> <Gold.Id.Protein>
unknown|7ts3_clean|pdb

> <Gold.Protein.RotatedTorsions>
[ 17130 17106 17107 17108 ] final -115.40 input   41.13 | X-H torsion
[ 17186 17148 17149 17150 ] final  -59.06 input  103.89 | X-H torsion
[ 18260 18245 18246 18247 ] final -103.11 input   44.49 | X-H torsion
[ 18335 18283 18284 18285 ] final  -60.16 input   36.74 | X-H torsion
[ 18422 18377 18378 18379 ] final -134.49 input  100.26 | X-H torsion
[ 18430 18388 18387 18385 ] final -114.71 input   60.03 | X-H torsion
[ 18490 18457 18458 18459 ] final  100.21 input   96.11 | X-H torsion
[ 18643 18610 18611 18612 ] final   99.25 input  123.23 | X-H torsion
[ 7420 7372 7373 7374 ] final  -86.04 input   96.91 | X-H torsion
[ 7454 7433 7434 7435 ] final  137.35 input   88.26 | X-H torsion
[ 18226 18203 18204 18205 ] final  161.77 input   35.17 | X-H torsion
[ 18536 18521 18522 18523 ] final    7.34 input  122.93 | X-H torsion
[ 10035 10015 10014 10011 ] final  120.11 input   59.98 | X-H torsion
[ 18230 18208 18207 18204 ] final -139.97 input   59.98 | X-H torsion
[ 18170 18128 18129 18130 ] final   46.92 input   43.95 | X-H torsion
[ 17239 17211 17212 17213 ] final   18.24 input   53.98 | X-H torsion
[ 10077 10062 10063 10064 ] final  158.38 input   19.45 | X-H torsion
[ 16922 16880 16879 16877 ] final  -44.21 input   60.00 | X-H torsion
[ 11366 11344 11343 11340 ] final -111.75 input   59.97 | X-H torsion
[ 11421 11386 11387 11388 ] final  152.48 input   51.38 | X-H torsion
[ 17293 17257 17258 17259 ] final  -59.30 input   68.80 | X-H torsion
[ 17355 17313 17314 17315 ] final -152.35 input   88.03 | X-H torsion
[ 18704 18669 18670 18671 ] final   77.87 input   94.89 | X-H torsion
[ 22365 22344 22345 22346 ] final   88.45 input   53.30 | X-H torsion
[ 27272 17055 17054 17053 ] final  -83.29 input    0.00 | X-H torsion
[ 27276 18131 18130 18129 ] final    8.02 input    0.00 | X-H torsion
[ 27279 18248 18247 18246 ] final  123.35 input   -0.00 | X-H torsion
[ 27282 18286 18285 18284 ] final  175.32 input    0.00 | X-H torsion
[ 27285 18380 18379 18378 ] final -101.84 input   -0.00 | X-H torsion
[ 27290 18460 18459 18458 ] final  -82.30 input    0.00 | X-H torsion
[ 27304 18206 18205 18204 ] final -163.08 input    0.00 | X-H torsion
[ 27306 16948 16947 16946 ] final  -21.46 input   -0.00 | X-H torsion
[ 27311 16980 16979 16978 ] final   51.62 input    0.00 | X-H torsion
[ 27315 17109 17108 17107 ] final   86.85 input    0.00 | X-H torsion
[ 27317 17151 17150 17149 ] final   58.27 input    0.00 | X-H torsion
[ 27322 10065 10064 10063 ] final   24.34 input    0.00 | X-H torsion
[ 27324 11342 11341 11340 ] final  -31.72 input    0.00 | X-H torsion
[ 27340 7243 7242 7241 ] final   33.44 input   -0.00 | X-H torsion
[ 27344 17260 17259 17258 ] final -161.25 input    0.00 | X-H torsion

> <Gold.Protein.ActiveResidues>
 MET341  HIS342  TRP414  ARG419  CYS420  VAL421  GLY422  LEU429  LEU460  SER462 
 ALA463  ILE464  SER482  GLN483  ARG486  TYR567  GLY568  LEU569  PRO570  ALA571 
 VAL572  SER573  ASN574  MET575  PRO588  PHE589  SER590  GLY591  TRP592  TYR593 
 MET594  GLY595  GLU597  ILE598  ARG601  ASP602  ARG608  ILE653  VAL654  TRP683 
 PHE709  TYR711  HEM801  H4B802 

> <Gold.Protein.RotatedAtoms>
  266.3944  321.1300  -61.4382 H   0  0  0  0  0  0  0  0  0  0  0  0  # atno 7420 bound_to 7372
  266.4566  319.6656  -58.8775 H   0  0  0  0  0  0  0  0  0  0  0  0  # atno 7454 bound_to 7433
  268.9327  310.5724  -56.9153 H   0  0  0  0  0  0  0  0  0  0  0  0  # atno 10035 bound_to 10015
  266.3403  306.7867  -58.2161 H   0  0  0  0  0  0  0  0  0  0  0  0  # atno 10077 bound_to 10062
  249.0239  313.0462  -63.3687 H   0  0  0  0  0  0  0  0  0  0  0  0  # atno 11366 bound_to 11344
  252.0672  311.6677  -62.3827 H   0  0  0  0  0  0  0  0  0  0  0  0  # atno 11421 bound_to 11386
  253.0910  313.8879  -55.9347 H   0  0  0  0  0  0  0  0  0  0  0  0  # atno 16922 bound_to 16880
  258.3433  311.2177  -58.0016 H   0  0  0  0  0  0  0  0  0  0  0  0  # atno 17130 bound_to 17106
  257.4440  310.0723  -61.0748 H   0  0  0  0  0  0  0  0  0  0  0  0  # atno 17186 bound_to 17148
  255.4377  310.7855  -64.5558 H   0  0  0  0  0  0  0  0  0  0  0  0  # atno 17239 bound_to 17211
  255.7274  309.6955  -66.8645 H   0  0  0  0  0  0  0  0  0  0  0  0  # atno 17293 bound_to 17257
  255.7413  311.8596  -68.4977 H   0  0  0  0  0  0  0  0  0  0  0  0  # atno 17355 bound_to 17313
  259.8694  308.6330  -63.6261 H   0  0  0  0  0  0  0  0  0  0  0  0  # atno 18170 bound_to 18128
  261.6153  308.1981  -60.9876 H   0  0  0  0  0  0  0  0  0  0  0  0  # atno 18226 bound_to 18203
  261.6827  306.1849  -58.3589 H   0  0  0  0  0  0  0  0  0  0  0  0  # atno 18230 bound_to 18208
  262.8506  309.8136  -57.8715 H   0  0  0  0  0  0  0  0  0  0  0  0  # atno 18260 bound_to 18245
  263.0227  312.6511  -55.6326 H   0  0  0  0  0  0  0  0  0  0  0  0  # atno 18335 bound_to 18283
  261.5296  314.1407  -53.5080 H   0  0  0  0  0  0  0  0  0  0  0  0  # atno 18422 bound_to 18377
  255.1638  314.2996  -55.7600 H   0  0  0  0  0  0  0  0  0  0  0  0  # atno 18430 bound_to 18388
  261.4607  318.2874  -53.9861 H   0  0  0  0  0  0  0  0  0  0  0  0  # atno 18490 bound_to 18457
  260.7956  321.0900  -51.3450 H   0  0  0  0  0  0  0  0  0  0  0  0  # atno 18536 bound_to 18521
  258.2412  321.4086  -52.8156 H   0  0  0  0  0  0  0  0  0  0  0  0  # atno 18643 bound_to 18610
  256.2912  320.5184  -51.7938 H   0  0  0  0  0  0  0  0  0  0  0  0  # atno 18704 bound_to 18669
  263.9406  317.4396  -50.0130 H   0  0  0  0  0  0  0  0  0  0  0  0  # atno 22365 bound_to 22344
  260.2615  311.6932  -58.1448 LP  0  0  0  0  0  0  0  0  0  0  0  0  # atno 27272 bound_to 17055
  260.1991  310.1293  -57.4028 LP  0  0  0  0  0  0  0  0  0  0  0  0  # atno 27273 bound_to 17055
  256.6930  310.6337  -58.0173 LP  0  0  0  0  0  0  0  0  0  0  0  0  # atno 27274 bound_to 17106
  258.6794  311.2953  -61.2595 LP  0  0  0  0  0  0  0  0  0  0  0  0  # atno 27275 bound_to 17148
  259.6691  309.5410  -62.1683 LP  0  0  0  0  0  0  0  0  0  0  0  0  # atno 27276 bound_to 18131
  260.1412  310.1477  -60.6162 LP  0  0  0  0  0  0  0  0  0  0  0  0  # atno 27277 bound_to 18131
  262.2074  311.4360  -57.9007 LP  0  0  0  0  0  0  0  0  0  0  0  0  # atno 27278 bound_to 18245
  263.3084  310.1590  -53.8271 LP  0  0  0  0  0  0  0  0  0  0  0  0  # atno 27279 bound_to 18248
  262.1542  309.9742  -55.1052 LP  0  0  0  0  0  0  0  0  0  0  0  0  # atno 27280 bound_to 18248
  264.5312  312.3302  -54.8076 LP  0  0  0  0  0  0  0  0  0  0  0  0  # atno 27281 bound_to 18283
  262.5148  316.0858  -54.5812 LP  0  0  0  0  0  0  0  0  0  0  0  0  # atno 27282 bound_to 18286
  263.6242  314.8621  -55.1024 LP  0  0  0  0  0  0  0  0  0  0  0  0  # atno 27283 bound_to 18286
  262.0579  314.5168  -51.8845 LP  0  0  0  0  0  0  0  0  0  0  0  0  # atno 27284 bound_to 18377
  262.1925  317.4709  -50.4184 LP  0  0  0  0  0  0  0  0  0  0  0  0  # atno 27285 bound_to 18380
  263.3616  316.6290  -51.3800 LP  0  0  0  0  0  0  0  0  0  0  0  0  # atno 27286 bound_to 18380
  254.3108  315.3628  -54.8713 LP  0  0  0  0  0  0  0  0  0  0  0  0  # atno 27287 bound_to 18388
  254.4995  313.8262  -54.3520 LP  0  0  0  0  0  0  0  0  0  0  0  0  # atno 27288 bound_to 18388
  261.6678  317.5025  -52.4385 LP  0  0  0  0  0  0  0  0  0  0  0  0  # atno 27289 bound_to 18457
  259.1666  320.5114  -52.9398 LP  0  0  0  0  0  0  0  0  0  0  0  0  # atno 27290 bound_to 18460
  258.9410  319.0615  -52.0196 LP  0  0  0  0  0  0  0  0  0  0  0  0  # atno 27291 bound_to 18460
  257.3171  322.8639  -53.0720 LP  0  0  0  0  0  0  0  0  0  0  0  0  # atno 27292 bound_to 18610
  265.1464  321.1847  -60.2173 LP  0  0  0  0  0  0  0  0  0  0  0  0  # atno 27301 bound_to 7372
  267.9851  320.2819  -59.4561 LP  0  0  0  0  0  0  0  0  0  0  0  0  # atno 27302 bound_to 7433
  263.0785  309.1501  -60.9041 LP  0  0  0  0  0  0  0  0  0  0  0  0  # atno 27303 bound_to 18203
  264.9863  309.5306  -58.1133 LP  0  0  0  0  0  0  0  0  0  0  0  0  # atno 27304 bound_to 18206
  264.3583  308.8319  -59.5684 LP  0  0  0  0  0  0  0  0  0  0  0  0  # atno 27305 bound_to 18206
  259.2847  311.6971  -50.6527 LP  0  0  0  0  0  0  0  0  0  0  0  0  # atno 27306 bound_to 16948
  259.7020  310.7547  -52.0447 LP  0  0  0  0  0  0  0  0  0  0  0  0  # atno 27307 bound_to 16948
  261.3762  319.9353  -50.1725 LP  0  0  0  0  0  0  0  0  0  0  0  0  # atno 27308 bound_to 18521
  267.3884  310.2537  -56.5135 LP  0  0  0  0  0  0  0  0  0  0  0  0  # atno 27309 bound_to 10015
  267.7225  311.1519  -57.8357 LP  0  0  0  0  0  0  0  0  0  0  0  0  # atno 27310 bound_to 10015
  255.8043  309.6771  -54.5179 LP  0  0  0  0  0  0  0  0  0  0  0  0  # atno 27311 bound_to 16980
  256.5447  309.6584  -56.0836 LP  0  0  0  0  0  0  0  0  0  0  0  0  # atno 27312 bound_to 16980
  262.6441  307.0664  -57.3853 LP  0  0  0  0  0  0  0  0  0  0  0  0  # atno 27313 bound_to 18208
  262.8349  307.1353  -59.0056 LP  0  0  0  0  0  0  0  0  0  0  0  0  # atno 27314 bound_to 18208
  255.2845  310.1765  -60.5085 LP  0  0  0  0  0  0  0  0  0  0  0  0  # atno 27315 bound_to 17109
  255.9037  308.8335  -61.4100 LP  0  0  0  0  0  0  0  0  0  0  0  0  # atno 27316 bound_to 17109
  258.6868  309.0874  -63.4132 LP  0  0  0  0  0  0  0  0  0  0  0  0  # atno 27317 bound_to 17151
  258.4357  309.5131  -65.0732 LP  0  0  0  0  0  0  0  0  0  0  0  0  # atno 27318 bound_to 17151
  260.4613  307.0075  -63.9003 LP  0  0  0  0  0  0  0  0  0  0  0  0  # atno 27319 bound_to 18128
  256.5439  309.8829  -63.5498 LP  0  0  0  0  0  0  0  0  0  0  0  0  # atno 27320 bound_to 17211
  265.8790  307.7500  -59.5924 LP  0  0  0  0  0  0  0  0  0  0  0  0  # atno 27321 bound_to 10062
  264.2428  307.5794  -60.4917 LP  0  0  0  0  0  0  0  0  0  0  0  0  # atno 27322 bound_to 10065
  263.3548  306.7671  -61.7373 LP  0  0  0  0  0  0  0  0  0  0  0  0  # atno 27323 bound_to 10065
  253.9257  311.1826  -64.8030 LP  0  0  0  0  0  0  0  0  0  0  0  0  # atno 27324 bound_to 11342
  254.3313  311.6479  -63.1846 LP  0  0  0  0  0  0  0  0  0  0  0  0  # atno 27325 bound_to 11342
  251.4775  313.7254  -55.8000 LP  0  0  0  0  0  0  0  0  0  0  0  0  # atno 27326 bound_to 16880
  252.3303  312.6901  -56.7314 LP  0  0  0  0  0  0  0  0  0  0  0  0  # atno 27327 bound_to 16880
  250.3011  313.7599  -62.6558 LP  0  0  0  0  0  0  0  0  0  0  0  0  # atno 27335 bound_to 11344
  250.1050  312.1418  -62.5551 LP  0  0  0  0  0  0  0  0  0  0  0  0  # atno 27336 bound_to 11344
  251.6297  310.0324  -62.8299 LP  0  0  0  0  0  0  0  0  0  0  0  0  # atno 27337 bound_to 11386
  262.5845  322.6168  -63.2194 LP  0  0  0  0  0  0  0  0  0  0  0  0  # atno 27340 bound_to 7243
  263.8669  322.3603  -62.0838 LP  0  0  0  0  0  0  0  0  0  0  0  0  # atno 27341 bound_to 7243
  254.5684  310.7289  -66.0689 LP  0  0  0  0  0  0  0  0  0  0  0  0  # atno 27343 bound_to 17257
  255.4225  311.7717  -71.0587 LP  0  0  0  0  0  0  0  0  0  0  0  0  # atno 27344 bound_to 17260
  253.8150  311.7629  -70.4139 LP  0  0  0  0  0  0  0  0  0  0  0  0  # atno 27345 bound_to 17260
  256.6817  310.3995  -68.6243 LP  0  0  0  0  0  0  0  0  0  0  0  0  # atno 27346 bound_to 17313

> <Gold.Score>
     Fitness  S(hb_ext) S(vdw_ext)  S(hb_int)    S(int)      intcor
     40.50       9.11      23.38       0.00      -0.77      -0.76

> <Gold.Goldscore.Fitness>
40.4962

> <Gold.Goldscore.Internal.Vdw>
-0.8748

> <Gold.Goldscore.Internal.Torsion>
-0.6533

> <Gold.Goldscore.External.Vdw>
23.3832

> <Gold.Goldscore.Internal.HBond>
0.0000

> <Gold.Goldscore.External.HBond>
9.1138

> <Gold.Goldscore.Internal.Correction>
-0.7585

> <Gold.Goldscore.Hbonds>
donor molecule, donor type, donor heavy atom, donor atom, acceptor molecule, acceptor atom, score
      L1  H     8    22       P1 26873  1.00
      L1  H    10    23       P1 17264  0.52

> <Gold.Goldscore.Internal.Vdw.Weighted>
-0.8748

> <Gold.Goldscore.Internal.Torsion.Weighted>
-0.6533

> <Gold.Goldscore.External.Vdw.Weighted>
32.1519

> <Gold.Goldscore.Internal.HBond.Weighted>
0.0000

> <Gold.Goldscore.External.HBond.Weighted>
9.1138

> <Gold.Goldscore.Internal.Correction.Weighted>
-0.7585

> <Gold.Rescore>
     Score     S(PLP)   S(hbond)     S(cho)   S(metal)  DE(clash)   DE(tors)     intcor
     29.05     -29.02       0.70       0.00       0.00       0.00       1.03       ----

> <Gold.PLP.Fitness>
29.0531

> <Gold.PLP.PLP>
-29.0174

> <Gold.PLP.part.hbond>
-0.9259

> <Gold.PLP.part.metal>
0.0000

> <Gold.PLP.part.buried>
1.7405

> <Gold.PLP.part.nonpolar>
-31.2868

> <Gold.PLP.part.repulsive>
0.4816

> <Gold.PLP.ligand.clash>
0.0000

> <Gold.PLP.ligand.torsion>
1.0302

> <Gold.PLP.Chemscore.Hbond>
0.6988

> <Gold.PLP.Chemscore.CHOScore>
0.0000

> <Gold.PLP.Chemscore.Metal>
0.0000

> <Gold.Chemscore.Hbonds>
donor molecule, donor type, donor heavy atom, donor atom, acceptor molecule, acceptor atom, score
      L1  H     8    22       P1 26873  1.00

> <Gold.PLP.Chemscore.Internal.Correction>
   9.000000E+99

