#       Name:                CT1002167954
#       Creating user name   hitesit
#       Creation time:       Sun Apr 16 02:28:08 2023


#       File generated by GOLD software.
#

@<TRIPOS>MOLECULE
CT1002167954|ligand_prepared|mol2|1|dock5
    29    30     1
SMALL
NO_CHARGES


@<TRIPOS>ATOM
      1 C1         260.5190 315.7028 -59.7788 C.3            1 RES1               0.0000
      2 C2         258.9996 315.6120 -59.5299 C.ar           1 RES1               0.0000
      3 C3         261.1109 316.4091 -58.5627 C.2            1 RES1               0.0000
      4 C4         261.0070 314.2704 -59.9651 C.2            1 RES1               0.0000
      5 C5         260.8978 316.5051 -61.0454 C.3            1 RES1               0.0000
      6 C6         258.1958 316.7434 -59.6332 C.ar           1 RES1               0.0000
      7 C7         258.3880 314.4057 -59.1994 C.ar           1 RES1               0.0000
      8 N8         261.8115 315.6515 -57.6709 N.am           1 RES1               0.0000
      9 O9         260.9322 317.6051 -58.3686 O.2            1 RES1               0.0000
     10 N10        261.8598 313.7552 -59.0243 N.am           1 RES1               0.0000
     11 O11        260.6477 313.5776 -60.9091 O.2            1 RES1               0.0000
     12 C12        260.0765 316.1389 -62.2716 C.3            1 RES1               0.0000
     13 C13        256.8297 316.6709 -59.4169 C.ar           1 RES1               0.0000
     14 C14        257.0217 314.3354 -58.9833 C.ar           1 RES1               0.0000
     15 C15        262.2599 314.3703 -57.8694 C.2            1 RES1               0.0000
     16 C16        256.2417 315.4670 -59.0922 C.ar           1 RES1               0.0000
     17 O17        262.9853 313.8213 -57.0451 O.2            1 RES1               0.0000
     18 H18        260.7661 317.5743 -60.8386 H              1 RES1               0.0000
     19 H19        261.9585 316.3346 -61.2673 H              1 RES1               0.0000
     20 H20        258.6411 317.7001 -59.8853 H              1 RES1               0.0000
     21 H21        258.9820 313.5028 -59.1071 H              1 RES1               0.0000
     22 H22        262.0214 316.0767 -56.7735 H              1 RES1               0.0000
     23 H23        262.2309 312.8271 -59.2014 H              1 RES1               0.0000
     24 H24        260.3826 316.7307 -63.1317 H              1 RES1               0.0000
     25 H25        260.2035 315.0876 -62.5211 H              1 RES1               0.0000
     26 H26        259.0182 316.3199 -62.0950 H              1 RES1               0.0000
     27 H27        256.2204 317.5646 -59.5025 H              1 RES1               0.0000
     28 H28        256.5633 313.3859 -58.7274 H              1 RES1               0.0000
     29 H29        255.1714 315.4104 -58.9232 H              1 RES1               0.0000
@<TRIPOS>BOND
    1    1    2 1     
    2    1    3 1     
    3    1    4 1     
    4    1    5 1     
    5    2    6 ar    
    6    2    7 ar    
    7    3    8 1     
    8    3    9 2     
    9    4   10 1     
   10    4   11 2     
   11    5   12 1     
   12    5   18 1     
   13    5   19 1     
   14    6   13 ar    
   15    6   20 1     
   16    7   14 ar    
   17    7   21 1     
   18    8   15 1     
   19    8   22 1     
   20   10   15 1     
   21   10   23 1     
   22   12   24 1     
   23   12   25 1     
   24   12   26 1     
   25   13   16 ar    
   26   13   27 1     
   27   14   16 ar    
   28   14   28 1     
   29   15   17 2     
   30   16   29 1     
@<TRIPOS>SUBSTRUCTURE
      1 RES1           1
@<TRIPOS>SET
DONOR_HYDROGENS      STATIC     ATOMS    <user>   **** ""
2 22 23
ATOM$RED        STATIC     ATOMS    COLORGROUP SYSTEM
2 22 23
@<TRIPOS>COMMENT
> <Gold.Version>
2022.3.0

> <Gold.Id.Protein>
unknown|7ts3_clean|pdb

> <Gold.Protein.RotatedTorsions>
[ 17130 17106 17107 17108 ] final   74.24 input   41.13 | X-H torsion
[ 17186 17148 17149 17150 ] final  164.80 input  103.89 | X-H torsion
[ 18260 18245 18246 18247 ] final  -42.57 input   44.49 | X-H torsion
[ 18335 18283 18284 18285 ] final  -53.20 input   36.74 | X-H torsion
[ 18422 18377 18378 18379 ] final  122.45 input  100.26 | X-H torsion
[ 18430 18388 18387 18385 ] final -119.78 input   60.03 | X-H torsion
[ 18490 18457 18458 18459 ] final  139.40 input   96.11 | X-H torsion
[ 18643 18610 18611 18612 ] final   14.69 input  123.23 | X-H torsion
[ 7420 7372 7373 7374 ] final -120.07 input   96.91 | X-H torsion
[ 7454 7433 7434 7435 ] final   88.06 input   88.26 | X-H torsion
[ 18226 18203 18204 18205 ] final  -79.86 input   35.17 | X-H torsion
[ 18536 18521 18522 18523 ] final -161.72 input  122.93 | X-H torsion
[ 10035 10015 10014 10011 ] final -136.47 input   59.98 | X-H torsion
[ 18230 18208 18207 18204 ] final   -6.98 input   59.98 | X-H torsion
[ 18170 18128 18129 18130 ] final -129.91 input   43.95 | X-H torsion
[ 17239 17211 17212 17213 ] final -125.85 input   53.98 | X-H torsion
[ 10077 10062 10063 10064 ] final  -93.39 input   19.45 | X-H torsion
[ 16922 16880 16879 16877 ] final   14.07 input   60.00 | X-H torsion
[ 11366 11344 11343 11340 ] final  -53.03 input   59.97 | X-H torsion
[ 11421 11386 11387 11388 ] final  139.24 input   51.38 | X-H torsion
[ 17293 17257 17258 17259 ] final -119.43 input   68.80 | X-H torsion
[ 17355 17313 17314 17315 ] final   56.04 input   88.03 | X-H torsion
[ 18704 18669 18670 18671 ] final -101.77 input   94.89 | X-H torsion
[ 22365 22344 22345 22346 ] final -132.17 input   53.30 | X-H torsion
[ 27272 17055 17054 17053 ] final  -78.62 input    0.00 | X-H torsion
[ 27276 18131 18130 18129 ] final   80.52 input    0.00 | X-H torsion
[ 27279 18248 18247 18246 ] final   -7.12 input   -0.00 | X-H torsion
[ 27282 18286 18285 18284 ] final    3.31 input    0.00 | X-H torsion
[ 27285 18380 18379 18378 ] final  119.33 input   -0.00 | X-H torsion
[ 27290 18460 18459 18458 ] final -113.54 input    0.00 | X-H torsion
[ 27304 18206 18205 18204 ] final    4.17 input    0.00 | X-H torsion
[ 27306 16948 16947 16946 ] final  143.17 input   -0.00 | X-H torsion
[ 27311 16980 16979 16978 ] final   47.47 input    0.00 | X-H torsion
[ 27315 17109 17108 17107 ] final -152.85 input    0.00 | X-H torsion
[ 27317 17151 17150 17149 ] final   -3.62 input    0.00 | X-H torsion
[ 27322 10065 10064 10063 ] final  -78.42 input    0.00 | X-H torsion
[ 27324 11342 11341 11340 ] final -165.51 input    0.00 | X-H torsion
[ 27340 7243 7242 7241 ] final   30.19 input   -0.00 | X-H torsion
[ 27344 17260 17259 17258 ] final  145.87 input    0.00 | X-H torsion

> <Gold.Protein.ActiveResidues>
 MET341  HIS342  TRP414  ARG419  CYS420  VAL421  GLY422  LEU429  LEU460  SER462 
 ALA463  ILE464  SER482  GLN483  ARG486  TYR567  GLY568  LEU569  PRO570  ALA571 
 VAL572  SER573  ASN574  MET575  PRO588  PHE589  SER590  GLY591  TRP592  TYR593 
 MET594  GLY595  GLU597  ILE598  ARG601  ASP602  ARG608  ILE653  VAL654  TRP683 
 PHE709  TYR711  HEM801  H4B802 

> <Gold.Protein.RotatedAtoms>
  266.1573  321.5866  -61.4847 H   0  0  0  0  0  0  0  0  0  0  0  0  # atno 7420 bound_to 7372
  266.6870  319.3696  -59.5104 H   0  0  0  0  0  0  0  0  0  0  0  0  # atno 7454 bound_to 7433
  267.9905  311.1788  -57.8658 H   0  0  0  0  0  0  0  0  0  0  0  0  # atno 10035 bound_to 10015
  266.8343  307.4952  -59.3364 H   0  0  0  0  0  0  0  0  0  0  0  0  # atno 10077 bound_to 10062
  249.3053  312.2226  -63.0759 H   0  0  0  0  0  0  0  0  0  0  0  0  # atno 11366 bound_to 11344
  251.9228  311.6417  -62.2391 H   0  0  0  0  0  0  0  0  0  0  0  0  # atno 11421 bound_to 11386
  253.1326  313.1682  -56.4927 H   0  0  0  0  0  0  0  0  0  0  0  0  # atno 16922 bound_to 16880
  256.7182  310.5096  -57.9339 H   0  0  0  0  0  0  0  0  0  0  0  0  # atno 17130 bound_to 17106
  258.1801  311.5303  -60.9097 H   0  0  0  0  0  0  0  0  0  0  0  0  # atno 17186 bound_to 17148
  256.8421  310.1076  -63.9379 H   0  0  0  0  0  0  0  0  0  0  0  0  # atno 17239 bound_to 17211
  254.9704  309.3609  -66.5660 H   0  0  0  0  0  0  0  0  0  0  0  0  # atno 17293 bound_to 17257
  256.8539  310.6043  -68.2905 H   0  0  0  0  0  0  0  0  0  0  0  0  # atno 17355 bound_to 17313
  260.4735  306.9703  -63.8493 H   0  0  0  0  0  0  0  0  0  0  0  0  # atno 18170 bound_to 18128
  262.3278  309.5177  -61.2253 H   0  0  0  0  0  0  0  0  0  0  0  0  # atno 18226 bound_to 18203
  262.9433  307.2409  -58.8559 H   0  0  0  0  0  0  0  0  0  0  0  0  # atno 18230 bound_to 18208
  262.2558  310.0700  -57.2647 H   0  0  0  0  0  0  0  0  0  0  0  0  # atno 18260 bound_to 18245
  263.0576  312.7524  -55.6431 H   0  0  0  0  0  0  0  0  0  0  0  0  # atno 18335 bound_to 18283
  261.1353  314.0248  -52.1844 H   0  0  0  0  0  0  0  0  0  0  0  0  # atno 18422 bound_to 18377
  255.1523  314.3782  -55.7834 H   0  0  0  0  0  0  0  0  0  0  0  0  # atno 18430 bound_to 18388
  262.0322  318.1495  -53.9080 H   0  0  0  0  0  0  0  0  0  0  0  0  # atno 18490 bound_to 18457
  261.3019  319.8133  -50.2593 H   0  0  0  0  0  0  0  0  0  0  0  0  # atno 18536 bound_to 18521
  257.2917  321.8485  -52.2775 H   0  0  0  0  0  0  0  0  0  0  0  0  # atno 18643 bound_to 18610
  255.3577  320.4254  -53.2969 H   0  0  0  0  0  0  0  0  0  0  0  0  # atno 18704 bound_to 18669
  264.4737  317.0657  -48.4832 H   0  0  0  0  0  0  0  0  0  0  0  0  # atno 22365 bound_to 22344
  260.2734  311.7199  -58.0806 LP  0  0  0  0  0  0  0  0  0  0  0  0  # atno 27272 bound_to 17055
  260.1871  310.1025  -57.4670 LP  0  0  0  0  0  0  0  0  0  0  0  0  # atno 27273 bound_to 17055
  258.2638  311.3181  -58.0828 LP  0  0  0  0  0  0  0  0  0  0  0  0  # atno 27274 bound_to 17106
  257.9612  309.8728  -61.4206 LP  0  0  0  0  0  0  0  0  0  0  0  0  # atno 27275 bound_to 17148
  259.4774  309.1025  -61.2628 LP  0  0  0  0  0  0  0  0  0  0  0  0  # atno 27276 bound_to 18131
  260.3328  310.5862  -61.5218 LP  0  0  0  0  0  0  0  0  0  0  0  0  # atno 27277 bound_to 18131
  262.7918  311.1840  -58.4971 LP  0  0  0  0  0  0  0  0  0  0  0  0  # atno 27278 bound_to 18245
  262.7638  309.5896  -55.1882 LP  0  0  0  0  0  0  0  0  0  0  0  0  # atno 27279 bound_to 18248
  262.6989  310.5436  -53.7440 LP  0  0  0  0  0  0  0  0  0  0  0  0  # atno 27280 bound_to 18248
  264.4974  312.2318  -54.7974 LP  0  0  0  0  0  0  0  0  0  0  0  0  # atno 27281 bound_to 18283
  263.5366  314.8265  -55.1774 LP  0  0  0  0  0  0  0  0  0  0  0  0  # atno 27282 bound_to 18286
  262.6024  316.1214  -54.5062 LP  0  0  0  0  0  0  0  0  0  0  0  0  # atno 27283 bound_to 18286
  262.4424  314.6299  -53.1753 LP  0  0  0  0  0  0  0  0  0  0  0  0  # atno 27284 bound_to 18377
  263.4696  317.2283  -51.3876 LP  0  0  0  0  0  0  0  0  0  0  0  0  # atno 27285 bound_to 18380
  262.0845  316.8716  -50.4108 LP  0  0  0  0  0  0  0  0  0  0  0  0  # atno 27286 bound_to 18380
  254.2781  315.3354  -54.7996 LP  0  0  0  0  0  0  0  0  0  0  0  0  # atno 27287 bound_to 18388
  254.5438  313.7744  -54.4002 LP  0  0  0  0  0  0  0  0  0  0  0  0  # atno 27288 bound_to 18388
  261.1097  317.6373  -52.5148 LP  0  0  0  0  0  0  0  0  0  0  0  0  # atno 27289 bound_to 18457
  258.9437  320.6424  -52.5517 LP  0  0  0  0  0  0  0  0  0  0  0  0  # atno 27290 bound_to 18460
  259.1639  318.9305  -52.4078 LP  0  0  0  0  0  0  0  0  0  0  0  0  # atno 27291 bound_to 18460
  258.2598  322.4271  -53.6063 LP  0  0  0  0  0  0  0  0  0  0  0  0  # atno 27292 bound_to 18610
  265.3784  320.7377  -60.1717 LP  0  0  0  0  0  0  0  0  0  0  0  0  # atno 27301 bound_to 7372
  267.7593  320.5720  -58.8358 LP  0  0  0  0  0  0  0  0  0  0  0  0  # atno 27302 bound_to 7433
  262.3824  307.8609  -60.6719 LP  0  0  0  0  0  0  0  0  0  0  0  0  # atno 27303 bound_to 18203
  264.3248  308.6798  -59.4555 LP  0  0  0  0  0  0  0  0  0  0  0  0  # atno 27304 bound_to 18206
  265.0198  309.6827  -58.2262 LP  0  0  0  0  0  0  0  0  0  0  0  0  # atno 27305 bound_to 18206
  259.8026  310.6204  -51.8852 LP  0  0  0  0  0  0  0  0  0  0  0  0  # atno 27306 bound_to 16948
  259.1841  311.8314  -50.8123 LP  0  0  0  0  0  0  0  0  0  0  0  0  # atno 27307 bound_to 16948
  260.8777  321.1920  -51.2413 LP  0  0  0  0  0  0  0  0  0  0  0  0  # atno 27308 bound_to 18521
  268.8459  310.4288  -56.7024 LP  0  0  0  0  0  0  0  0  0  0  0  0  # atno 27309 bound_to 10015
  267.2142  310.3658  -56.6893 LP  0  0  0  0  0  0  0  0  0  0  0  0  # atno 27310 bound_to 10015
  255.8209  309.6169  -54.5119 LP  0  0  0  0  0  0  0  0  0  0  0  0  # atno 27311 bound_to 16980
  256.5281  309.7185  -56.0897 LP  0  0  0  0  0  0  0  0  0  0  0  0  # atno 27312 bound_to 16980
  261.7227  306.2036  -58.5671 LP  0  0  0  0  0  0  0  0  0  0  0  0  # atno 27313 bound_to 18208
  262.4876  306.9353  -57.3236 LP  0  0  0  0  0  0  0  0  0  0  0  0  # atno 27314 bound_to 18208
  255.7030  309.5670  -61.8162 LP  0  0  0  0  0  0  0  0  0  0  0  0  # atno 27315 bound_to 17109
  255.4852  309.4431  -60.1023 LP  0  0  0  0  0  0  0  0  0  0  0  0  # atno 27316 bound_to 17109
  259.0382  309.8317  -63.7533 LP  0  0  0  0  0  0  0  0  0  0  0  0  # atno 27317 bound_to 17151
  258.0842  308.7687  -64.7331 LP  0  0  0  0  0  0  0  0  0  0  0  0  # atno 27318 bound_to 17151
  259.8792  308.6097  -63.6852 LP  0  0  0  0  0  0  0  0  0  0  0  0  # atno 27319 bound_to 18128
  255.1661  310.5479  -64.1559 LP  0  0  0  0  0  0  0  0  0  0  0  0  # atno 27320 bound_to 17211
  265.3873  307.0447  -58.4773 LP  0  0  0  0  0  0  0  0  0  0  0  0  # atno 27321 bound_to 10062
  263.2886  306.6358  -60.6663 LP  0  0  0  0  0  0  0  0  0  0  0  0  # atno 27322 bound_to 10065
  264.3089  307.7106  -61.5628 LP  0  0  0  0  0  0  0  0  0  0  0  0  # atno 27323 bound_to 10065
  254.4114  310.9827  -63.2989 LP  0  0  0  0  0  0  0  0  0  0  0  0  # atno 27324 bound_to 11342
  253.8456  311.8478  -64.6887 LP  0  0  0  0  0  0  0  0  0  0  0  0  # atno 27325 bound_to 11342
  252.2442  314.1786  -55.5774 LP  0  0  0  0  0  0  0  0  0  0  0  0  # atno 27326 bound_to 16880
  251.5217  312.9617  -56.3920 LP  0  0  0  0  0  0  0  0  0  0  0  0  # atno 27327 bound_to 16880
  249.5272  313.8329  -63.1562 LP  0  0  0  0  0  0  0  0  0  0  0  0  # atno 27335 bound_to 11344
  250.5956  312.8979  -62.3494 LP  0  0  0  0  0  0  0  0  0  0  0  0  # atno 27336 bound_to 11344
  251.7693  310.0575  -62.9687 LP  0  0  0  0  0  0  0  0  0  0  0  0  # atno 27337 bound_to 11386
  262.5984  322.6638  -63.2224 LP  0  0  0  0  0  0  0  0  0  0  0  0  # atno 27340 bound_to 7243
  263.8529  322.3133  -62.0808 LP  0  0  0  0  0  0  0  0  0  0  0  0  # atno 27341 bound_to 7243
  255.3154  311.0591  -66.3635 LP  0  0  0  0  0  0  0  0  0  0  0  0  # atno 27343 bound_to 17257
  255.1779  312.4286  -70.7370 LP  0  0  0  0  0  0  0  0  0  0  0  0  # atno 27344 bound_to 17260
  254.0596  311.1060  -70.7357 LP  0  0  0  0  0  0  0  0  0  0  0  0  # atno 27345 bound_to 17260
  255.5720  311.6516  -68.8310 LP  0  0  0  0  0  0  0  0  0  0  0  0  # atno 27346 bound_to 17313

> <Gold.Score>
     Fitness  S(hb_ext) S(vdw_ext)  S(hb_int)    S(int)      intcor
     48.72       1.48      36.58       0.00      -3.06      -0.76

> <Gold.Goldscore.Fitness>
48.7155

> <Gold.Goldscore.Internal.Vdw>
-3.1690

> <Gold.Goldscore.Internal.Torsion>
-0.6542

> <Gold.Goldscore.External.Vdw>
36.5818

> <Gold.Goldscore.Internal.HBond>
0.0000

> <Gold.Goldscore.External.HBond>
1.4780

> <Gold.Goldscore.Internal.Correction>
-0.7607

> <Gold.Goldscore.Hbonds>
donor molecule, donor type, donor heavy atom, donor atom, acceptor molecule, acceptor atom, score
      P1  H 18283 18335       L1    17  0.68
      L1  H     8    22       P1 18286  0.06

> <Gold.Goldscore.Internal.Vdw.Weighted>
-3.1690

> <Gold.Goldscore.Internal.Torsion.Weighted>
-0.6542

> <Gold.Goldscore.External.Vdw.Weighted>
50.2999

> <Gold.Goldscore.Internal.HBond.Weighted>
0.0000

> <Gold.Goldscore.External.HBond.Weighted>
1.4780

> <Gold.Goldscore.Internal.Correction.Weighted>
-0.7607

> <Gold.Rescore>
     Score     S(PLP)   S(hbond)     S(cho)   S(metal)  DE(clash)   DE(tors)     intcor
     32.92     -29.39       1.85       0.00       0.00       0.00       1.00       ----

> <Gold.PLP.Fitness>
32.9211

> <Gold.PLP.PLP>
-29.3898

> <Gold.PLP.part.hbond>
-4.2141

> <Gold.PLP.part.metal>
0.0000

> <Gold.PLP.part.buried>
18.5419

> <Gold.PLP.part.nonpolar>
-47.8295

> <Gold.PLP.part.repulsive>
2.6868

> <Gold.PLP.ligand.clash>
0.0000

> <Gold.PLP.ligand.torsion>
1.0046

> <Gold.PLP.Chemscore.Hbond>
1.8468

> <Gold.PLP.Chemscore.CHOScore>
0.0000

> <Gold.PLP.Chemscore.Metal>
0.0000

> <Gold.Chemscore.Hbonds>
donor molecule, donor type, donor heavy atom, donor atom, acceptor molecule, acceptor atom, score
      P1  H 18283 18335       L1    17  0.83

> <Gold.PLP.Chemscore.Internal.Correction>
   9.000000E+99

