#       Name:                CT1002167954
#       Creating user name   hitesit
#       Creation time:       Sun Apr 16 20:16:48 2023


#       File generated by GOLD software.
#

@<TRIPOS>MOLECULE
CT1002167954|ligand_prepared|mol2|1|dock8
    29    30     1
SMALL
NO_CHARGES


@<TRIPOS>ATOM
      1 C1         123.5511 244.7239 356.9486 C.3            1 RES1               0.0000
      2 C2         124.0199 245.1404 355.5395 C.ar           1 RES1               0.0000
      3 C3         123.6679 243.2036 357.0070 C.2            1 RES1               0.0000
      4 C4         124.4566 245.4557 357.9331 C.2            1 RES1               0.0000
      5 C5         122.0886 245.1167 357.2620 C.3            1 RES1               0.0000
      6 C6         124.8513 244.3092 354.7948 C.ar           1 RES1               0.0000
      7 C7         123.6279 246.3494 354.9710 C.ar           1 RES1               0.0000
      8 N8         124.6897 242.6761 357.7402 N.am           1 RES1               0.0000
      9 O9         122.8988 242.4794 356.3871 O.2            1 RES1               0.0000
     10 N10        125.2983 244.7049 358.7114 N.am           1 RES1               0.0000
     11 O11        124.4608 246.6767 358.0301 O.2            1 RES1               0.0000
     12 C12        121.5491 244.4999 358.5429 C.3            1 RES1               0.0000
     13 C13        125.2731 244.6720 353.5265 C.ar           1 RES1               0.0000
     14 C14        124.0510 246.7104 353.7025 C.ar           1 RES1               0.0000
     15 C15        125.4779 243.3505 358.6378 C.2            1 RES1               0.0000
     16 C16        124.8730 245.8725 352.9793 C.ar           1 RES1               0.0000
     17 O17        126.2938 242.7531 359.3339 O.2            1 RES1               0.0000
     18 H18        122.0257 246.2089 357.3423 H              1 RES1               0.0000
     19 H19        121.4521 244.8048 356.4247 H              1 RES1               0.0000
     20 H20        125.1785 243.3617 355.2099 H              1 RES1               0.0000
     21 H21        122.9823 247.0249 355.5220 H              1 RES1               0.0000
     22 H22        124.8860 241.6889 357.6088 H              1 RES1               0.0000
     23 H23        125.8412 245.2018 359.4105 H              1 RES1               0.0000
     24 H24        120.5199 244.8075 358.7155 H              1 RES1               0.0000
     25 H25        121.5733 243.4135 358.4880 H              1 RES1               0.0000
     26 H26        122.1436 244.8092 359.4001 H              1 RES1               0.0000
     27 H27        125.9211 244.0096 352.9620 H              1 RES1               0.0000
     28 H28        123.7342 247.6564 353.2760 H              1 RES1               0.0000
     29 H29        125.2033 246.1563 351.9855 H              1 RES1               0.0000
@<TRIPOS>BOND
    1    1    2 1     
    2    1    3 1     
    3    1    4 1     
    4    1    5 1     
    5    2    6 ar    
    6    2    7 ar    
    7    3    8 1     
    8    3    9 2     
    9    4   10 1     
   10    4   11 2     
   11    5   12 1     
   12    5   18 1     
   13    5   19 1     
   14    6   13 ar    
   15    6   20 1     
   16    7   14 ar    
   17    7   21 1     
   18    8   15 1     
   19    8   22 1     
   20   10   15 1     
   21   10   23 1     
   22   12   24 1     
   23   12   25 1     
   24   12   26 1     
   25   13   16 ar    
   26   13   27 1     
   27   14   16 ar    
   28   14   28 1     
   29   15   17 2     
   30   16   29 1     
@<TRIPOS>SUBSTRUCTURE
      1 RES1           1
@<TRIPOS>SET
DONOR_HYDROGENS      STATIC     ATOMS    <user>   **** ""
2 22 23
ATOM$RED        STATIC     ATOMS    COLORGROUP SYSTEM
2 22 23
@<TRIPOS>COMMENT
> <Gold.Version>
2022.3.0

> <Gold.Id.Protein>
unknown|5adf_clean|pdb

> <Gold.Protein.RotatedTorsions>
[ 9076 9061 9060 9058 ] final  -85.01 input   60.03 | X-H torsion
[ 8987 8971 8970 8967 ] final   18.12 input   59.98 | X-H torsion
[ 12872 12851 12850 12848 ] final -108.45 input   59.99 | X-H torsion
[ 5555 5539 5538 5535 ] final  101.02 input   60.00 | X-H torsion
[ 8337 8307 8306 8304 ] final  -92.86 input   59.97 | X-H torsion
[ 8491 8475 8474 8471 ] final   76.25 input   60.02 | X-H torsion

> <Gold.Protein.ActiveResidues>
 MET341  HIS342  TRP414  ALA417  ARG419  CYS420  VAL421  GLY422  LEU460  SER462 
 ASN481  SER482  GLN483  LEU484  ARG486  ALA502  ASN503  TRP566  TYR567  GLY568 
 LEU569  PRO570  ALA571  VAL572  SER573  ASN574  MET575  LEU576  PHE589  SER590 
 GLY591  TRP592  TYR593  MET594  GLY595  GLU597  ILE598  ARG601  ASP602  ARG608 
 ILE653  VAL654  TRP683  PHE709  GLU710  TYR711  GLN712  ASP714  HEM750  H4B760 

> <Gold.Protein.RotatedAtoms>
  127.2766  248.3010  361.8308 H   0  0  0  0  0  0  0  0  0  0  0  0  # atno 5555 bound_to 5539
  125.4076  241.4133  361.0947 H   0  0  0  0  0  0  0  0  0  0  0  0  # atno 8337 bound_to 8307
  124.7847  251.1178  366.8595 H   0  0  0  0  0  0  0  0  0  0  0  0  # atno 8491 bound_to 8475
  114.8903  244.6015  367.8200 H   0  0  0  0  0  0  0  0  0  0  0  0  # atno 8987 bound_to 8971
  123.6429  240.1098  360.3211 H   0  0  0  0  0  0  0  0  0  0  0  0  # atno 9076 bound_to 9061
  121.7761  253.7859  353.8670 H   0  0  0  0  0  0  0  0  0  0  0  0  # atno 12872 bound_to 12851
  122.9959  240.4983  361.7631 LP  0  0  0  0  0  0  0  0  0  0  0  0  # atno 13471 bound_to 9061
  122.8072  241.4968  360.4849 LP  0  0  0  0  0  0  0  0  0  0  0  0  # atno 13472 bound_to 9061
  116.1779  244.9369  368.7568 LP  0  0  0  0  0  0  0  0  0  0  0  0  # atno 13487 bound_to 8971
  115.8207  243.3890  368.3787 LP  0  0  0  0  0  0  0  0  0  0  0  0  # atno 13488 bound_to 8971
  120.1806  254.0924  353.9573 LP  0  0  0  0  0  0  0  0  0  0  0  0  # atno 13503 bound_to 12851
  120.9100  253.1990  355.1133 LP  0  0  0  0  0  0  0  0  0  0  0  0  # atno 13504 bound_to 12851
  128.0026  248.6144  363.2530 LP  0  0  0  0  0  0  0  0  0  0  0  0  # atno 13506 bound_to 5539
  128.7494  248.9925  361.8509 LP  0  0  0  0  0  0  0  0  0  0  0  0  # atno 13507 bound_to 5539
  126.5268  242.0331  362.1004 LP  0  0  0  0  0  0  0  0  0  0  0  0  # atno 13510 bound_to 8307
  124.9542  242.4363  362.2763 LP  0  0  0  0  0  0  0  0  0  0  0  0  # atno 13511 bound_to 8307
  124.2264  249.9327  365.8942 LP  0  0  0  0  0  0  0  0  0  0  0  0  # atno 13522 bound_to 8475
  124.7220  249.5884  367.4116 LP  0  0  0  0  0  0  0  0  0  0  0  0  # atno 13523 bound_to 8475

> <Gold.Score>
     Fitness  S(hb_ext) S(vdw_ext)  S(hb_int)    S(int)      intcor
     32.52       4.62      21.03       0.00      -1.02      -0.77

> <Gold.Goldscore.Fitness>
32.5181

> <Gold.Goldscore.Internal.Vdw>
-1.2547

> <Gold.Goldscore.Internal.Torsion>
-0.5319

> <Gold.Goldscore.External.Vdw>
21.0301

> <Gold.Goldscore.Internal.HBond>
0.0000

> <Gold.Goldscore.External.HBond>
4.6229

> <Gold.Goldscore.Internal.Correction>
-0.7653

> <Gold.Goldscore.Hbonds>
donor molecule, donor type, donor heavy atom, donor atom, acceptor molecule, acceptor atom, score
      P1  H  9502  9538       L1    17  0.03
      L1  H     8    22       P1  9337  0.74

> <Gold.Goldscore.Internal.Vdw.Weighted>
-1.2547

> <Gold.Goldscore.Internal.Torsion.Weighted>
-0.5319

> <Gold.Goldscore.External.Vdw.Weighted>
28.9164

> <Gold.Goldscore.Internal.HBond.Weighted>
0.0000

> <Gold.Goldscore.External.HBond.Weighted>
4.6229

> <Gold.Goldscore.Internal.Correction.Weighted>
-0.7653

> <Gold.Rescore>
     Score     S(PLP)   S(hbond)     S(cho)   S(metal)  DE(clash)   DE(tors)     intcor
     16.63     -13.75       1.72       0.00       0.00       1.73       0.27       ----

> <Gold.PLP.Fitness>
16.6316

> <Gold.PLP.PLP>
-13.7539

> <Gold.PLP.part.hbond>
-3.1064

> <Gold.PLP.part.metal>
0.0000

> <Gold.PLP.part.buried>
2.9655

> <Gold.PLP.part.nonpolar>
-17.0642

> <Gold.PLP.part.repulsive>
2.4257

> <Gold.PLP.ligand.clash>
1.7342

> <Gold.PLP.ligand.torsion>
0.2740

> <Gold.PLP.Chemscore.Hbond>
1.7200

> <Gold.PLP.Chemscore.CHOScore>
0.0000

> <Gold.PLP.Chemscore.Metal>
0.0000

> <Gold.Chemscore.Hbonds>
donor molecule, donor type, donor heavy atom, donor atom, acceptor molecule, acceptor atom, score
      L1  H     8    22       P1  9337  0.20
      P1  H  8307  8337       L1    17  0.10

> <Gold.PLP.Chemscore.Internal.Correction>
   9.000000E+99

