#       Name:                CT1002167954
#       Creating user name   hitesit
#       Creation time:       Sun Apr 16 20:16:43 2023


#       File generated by GOLD software.
#

@<TRIPOS>MOLECULE
CT1002167954|ligand_prepared|mol2|1|dock3
    29    30     1
SMALL
NO_CHARGES


@<TRIPOS>ATOM
      1 C1         123.1411 244.3849 356.7041 C.3            1 RES1               0.0000
      2 C2         122.6054 245.7105 357.2824 C.ar           1 RES1               0.0000
      3 C3         124.6179 244.6167 356.3981 C.2            1 RES1               0.0000
      4 C4         122.8853 243.3217 357.7665 C.2            1 RES1               0.0000
      5 C5         122.4339 243.9398 355.4028 C.3            1 RES1               0.0000
      6 C6         123.4746 246.6416 357.8432 C.ar           1 RES1               0.0000
      7 C7         121.2475 246.0171 357.2600 C.ar           1 RES1               0.0000
      8 N8         125.5333 244.0405 357.2288 N.am           1 RES1               0.0000
      9 O9         124.9735 245.3267 355.4655 O.2            1 RES1               0.0000
     10 N10        123.9710 242.7350 358.3622 N.am           1 RES1               0.0000
     11 O11        121.7534 242.9986 358.1050 O.2            1 RES1               0.0000
     12 C12        123.1242 242.7853 354.6938 C.3            1 RES1               0.0000
     13 C13        123.0037 247.8371 358.3601 C.ar           1 RES1               0.0000
     14 C14        120.7786 247.2132 357.7777 C.ar           1 RES1               0.0000
     15 C15        125.2832 243.0681 358.1635 C.2            1 RES1               0.0000
     16 C16        121.6556 248.1239 358.3274 C.ar           1 RES1               0.0000
     17 O17        126.2014 242.5323 358.7773 O.2            1 RES1               0.0000
     18 H18        121.4059 243.6423 355.6437 H              1 RES1               0.0000
     19 H19        122.3836 244.7953 354.7179 H              1 RES1               0.0000
     20 H20        124.5385 246.4322 357.8800 H              1 RES1               0.0000
     21 H21        120.5390 245.3151 356.8335 H              1 RES1               0.0000
     22 H22        126.4925 244.3625 357.1476 H              1 RES1               0.0000
     23 H23        123.7837 241.9798 359.0141 H              1 RES1               0.0000
     24 H24        122.5875 242.5129 353.7875 H              1 RES1               0.0000
     25 H25        124.1413 243.0553 354.4171 H              1 RES1               0.0000
     26 H26        123.1693 241.9091 355.3373 H              1 RES1               0.0000
     27 H27        123.6979 248.5499 358.7929 H              1 RES1               0.0000
     28 H28        119.7168 247.4345 357.7504 H              1 RES1               0.0000
     29 H29        121.2870 249.0607 358.7321 H              1 RES1               0.0000
@<TRIPOS>BOND
    1    1    2 1     
    2    1    3 1     
    3    1    4 1     
    4    1    5 1     
    5    2    6 ar    
    6    2    7 ar    
    7    3    8 1     
    8    3    9 2     
    9    4   10 1     
   10    4   11 2     
   11    5   12 1     
   12    5   18 1     
   13    5   19 1     
   14    6   13 ar    
   15    6   20 1     
   16    7   14 ar    
   17    7   21 1     
   18    8   15 1     
   19    8   22 1     
   20   10   15 1     
   21   10   23 1     
   22   12   24 1     
   23   12   25 1     
   24   12   26 1     
   25   13   16 ar    
   26   13   27 1     
   27   14   16 ar    
   28   14   28 1     
   29   15   17 2     
   30   16   29 1     
@<TRIPOS>SUBSTRUCTURE
      1 RES1           1
@<TRIPOS>SET
DONOR_HYDROGENS      STATIC     ATOMS    <user>   **** ""
2 22 23
ATOM$RED        STATIC     ATOMS    COLORGROUP SYSTEM
2 22 23
@<TRIPOS>COMMENT
> <Gold.Version>
2022.3.0

> <Gold.Id.Protein>
unknown|5adf_clean|pdb

> <Gold.Protein.RotatedTorsions>
[ 9076 9061 9060 9058 ] final -137.38 input   60.03 | X-H torsion
[ 8987 8971 8970 8967 ] final  -20.58 input   59.98 | X-H torsion
[ 12872 12851 12850 12848 ] final   52.98 input   59.99 | X-H torsion
[ 5555 5539 5538 5535 ] final  102.62 input   60.00 | X-H torsion
[ 8337 8307 8306 8304 ] final  152.78 input   59.97 | X-H torsion
[ 8491 8475 8474 8471 ] final  -23.14 input   60.02 | X-H torsion

> <Gold.Protein.ActiveResidues>
 MET341  HIS342  TRP414  ALA417  ARG419  CYS420  VAL421  GLY422  LEU460  SER462 
 ASN481  SER482  GLN483  LEU484  ARG486  ALA502  ASN503  TRP566  TYR567  GLY568 
 LEU569  PRO570  ALA571  VAL572  SER573  ASN574  MET575  LEU576  PHE589  SER590 
 GLY591  TRP592  TYR593  MET594  GLY595  GLU597  ILE598  ARG601  ASP602  ARG608 
 ILE653  VAL654  TRP683  PHE709  GLU710  TYR711  GLN712  ASP714  HEM750  H4B760 

> <Gold.Protein.RotatedAtoms>
  127.2889  248.3072  361.8084 H   0  0  0  0  0  0  0  0  0  0  0  0  # atno 5555 bound_to 5539
  126.5414  241.9728  362.0316 H   0  0  0  0  0  0  0  0  0  0  0  0  # atno 8337 bound_to 8307
  124.2626  250.2628  365.8421 H   0  0  0  0  0  0  0  0  0  0  0  0  # atno 8491 bound_to 8475
  115.1804  245.0923  368.0645 H   0  0  0  0  0  0  0  0  0  0  0  0  # atno 8987 bound_to 8971
  123.5360  239.8859  361.1096 H   0  0  0  0  0  0  0  0  0  0  0  0  # atno 9076 bound_to 9061
  120.3153  253.4445  354.9460 H   0  0  0  0  0  0  0  0  0  0  0  0  # atno 12872 bound_to 12851
  122.6715  241.2126  361.4858 LP  0  0  0  0  0  0  0  0  0  0  0  0  # atno 13471 bound_to 9061
  123.2393  241.0079  359.9685 LP  0  0  0  0  0  0  0  0  0  0  0  0  # atno 13472 bound_to 9061
  116.3951  244.3608  368.8629 LP  0  0  0  0  0  0  0  0  0  0  0  0  # atno 13487 bound_to 8971
  115.3112  243.4707  368.0264 LP  0  0  0  0  0  0  0  0  0  0  0  0  # atno 13488 bound_to 8971
  121.8537  253.4195  354.4162 LP  0  0  0  0  0  0  0  0  0  0  0  0  # atno 13503 bound_to 12851
  120.7077  254.2156  353.5679 LP  0  0  0  0  0  0  0  0  0  0  0  0  # atno 13504 bound_to 12851
  127.9787  248.6031  363.2522 LP  0  0  0  0  0  0  0  0  0  0  0  0  # atno 13506 bound_to 5539
  128.7610  248.9975  361.8741 LP  0  0  0  0  0  0  0  0  0  0  0  0  # atno 13507 bound_to 5539
  125.0210  242.4692  362.3315 LP  0  0  0  0  0  0  0  0  0  0  0  0  # atno 13510 bound_to 8307
  125.3182  241.4367  361.1018 LP  0  0  0  0  0  0  0  0  0  0  0  0  # atno 13511 bound_to 8307
  124.5987  249.3865  367.1713 LP  0  0  0  0  0  0  0  0  0  0  0  0  # atno 13522 bound_to 8475
  124.8755  250.9958  367.1593 LP  0  0  0  0  0  0  0  0  0  0  0  0  # atno 13523 bound_to 8475

> <Gold.Score>
     Fitness  S(hb_ext) S(vdw_ext)  S(hb_int)    S(int)      intcor
     35.48       5.81      22.38       0.00      -1.10      -0.77

> <Gold.Goldscore.Fitness>
35.4814

> <Gold.Goldscore.Internal.Vdw>
-1.3057

> <Gold.Goldscore.Internal.Torsion>
-0.5547

> <Gold.Goldscore.External.Vdw>
22.3774

> <Gold.Goldscore.Internal.HBond>
0.0000

> <Gold.Goldscore.External.HBond>
5.8076

> <Gold.Goldscore.Internal.Correction>
-0.7653

> <Gold.Goldscore.Hbonds>
donor molecule, donor type, donor heavy atom, donor atom, acceptor molecule, acceptor atom, score
      P1  H  9502  9538       L1    17  0.75
      L1  H    10    23       P1  9061  0.65

> <Gold.Goldscore.Internal.Vdw.Weighted>
-1.3057

> <Gold.Goldscore.Internal.Torsion.Weighted>
-0.5547

> <Gold.Goldscore.External.Vdw.Weighted>
30.7689

> <Gold.Goldscore.Internal.HBond.Weighted>
0.0000

> <Gold.Goldscore.External.HBond.Weighted>
5.8076

> <Gold.Goldscore.Internal.Correction.Weighted>
-0.7653

> <Gold.Rescore>
     Score     S(PLP)   S(hbond)     S(cho)   S(metal)  DE(clash)   DE(tors)     intcor
     22.83     -22.29       1.10       0.00       0.00       0.03       1.37       ----

> <Gold.PLP.Fitness>
22.8273

> <Gold.PLP.PLP>
-22.2902

> <Gold.PLP.part.hbond>
-3.6201

> <Gold.PLP.part.metal>
0.0000

> <Gold.PLP.part.buried>
-3.5724

> <Gold.PLP.part.nonpolar>
-18.3996

> <Gold.PLP.part.repulsive>
1.1851

> <Gold.PLP.ligand.clash>
0.0263

> <Gold.PLP.ligand.torsion>
1.3665

> <Gold.PLP.Chemscore.Hbond>
1.0988

> <Gold.PLP.Chemscore.CHOScore>
0.0000

> <Gold.PLP.Chemscore.Metal>
0.0000

> <Gold.Chemscore.Hbonds>
donor molecule, donor type, donor heavy atom, donor atom, acceptor molecule, acceptor atom, score
      L1  H    10    23       P1  9061  0.13
      P1  H  9502  9538       L1    17  0.68

> <Gold.PLP.Chemscore.Internal.Correction>
   9.000000E+99

