#       Name:                CT1002167954
#       Creating user name   hitesit
#       Creation time:       Sun Apr 16 20:16:45 2023


#       File generated by GOLD software.
#

@<TRIPOS>MOLECULE
CT1002167954|ligand_prepared|mol2|1|dock5
    29    30     1
SMALL
NO_CHARGES


@<TRIPOS>ATOM
      1 C1         118.0845 245.5581 359.5251 C.3            1 RES1               0.0000
      2 C2         118.8809 246.6247 358.7462 C.ar           1 RES1               0.0000
      3 C3         118.9396 245.1808 360.7312 C.2            1 RES1               0.0000
      4 C4         116.7497 246.2010 359.8854 C.2            1 RES1               0.0000
      5 C5         117.7929 244.2768 358.7096 C.3            1 RES1               0.0000
      6 C6         118.4674 247.9535 358.7399 C.ar           1 RES1               0.0000
      7 C7         120.0306 246.2962 358.0328 C.ar           1 RES1               0.0000
      8 N8         118.5465 245.6412 361.9532 N.am           1 RES1               0.0000
      9 O9         119.9649 244.5224 360.6067 O.2            1 RES1               0.0000
     10 N10        116.4793 246.4194 361.2109 N.am           1 RES1               0.0000
     11 O11        115.9369 246.5356 359.0324 O.2            1 RES1               0.0000
     12 C12        116.6569 243.4372 359.2722 C.3            1 RES1               0.0000
     13 C13        119.1790 248.9195 358.0479 C.ar           1 RES1               0.0000
     14 C14        120.7406 247.2638 357.3413 C.ar           1 RES1               0.0000
     15 C15        117.3302 246.1968 362.2591 C.2            1 RES1               0.0000
     16 C16        120.3161 248.5755 357.3486 C.ar           1 RES1               0.0000
     17 O17        117.0354 246.4697 363.4192 O.2            1 RES1               0.0000
     18 H18        117.5445 244.5625 357.6800 H              1 RES1               0.0000
     19 H19        118.7023 243.6642 358.6774 H              1 RES1               0.0000
     20 H20        117.5735 248.2426 359.2825 H              1 RES1               0.0000
     21 H21        120.3826 245.2704 358.0120 H              1 RES1               0.0000
     22 H22        119.2192 245.5656 362.7096 H              1 RES1               0.0000
     23 H23        115.5584 246.7813 361.4372 H              1 RES1               0.0000
     24 H24        116.4940 242.5507 358.6628 H              1 RES1               0.0000
     25 H25        116.8815 243.1145 360.2867 H              1 RES1               0.0000
     26 H26        115.7305 244.0075 359.2952 H              1 RES1               0.0000
     27 H27        118.8400 249.9502 358.0557 H              1 RES1               0.0000
     28 H28        121.6347 246.9884 356.7917 H              1 RES1               0.0000
     29 H29        120.8736 249.3325 356.8069 H              1 RES1               0.0000
@<TRIPOS>BOND
    1    1    2 1     
    2    1    3 1     
    3    1    4 1     
    4    1    5 1     
    5    2    6 ar    
    6    2    7 ar    
    7    3    8 1     
    8    3    9 2     
    9    4   10 1     
   10    4   11 2     
   11    5   12 1     
   12    5   18 1     
   13    5   19 1     
   14    6   13 ar    
   15    6   20 1     
   16    7   14 ar    
   17    7   21 1     
   18    8   15 1     
   19    8   22 1     
   20   10   15 1     
   21   10   23 1     
   22   12   24 1     
   23   12   25 1     
   24   12   26 1     
   25   13   16 ar    
   26   13   27 1     
   27   14   16 ar    
   28   14   28 1     
   29   15   17 2     
   30   16   29 1     
@<TRIPOS>SUBSTRUCTURE
      1 RES1           1
@<TRIPOS>SET
DONOR_HYDROGENS      STATIC     ATOMS    <user>   **** ""
2 22 23
ATOM$RED        STATIC     ATOMS    COLORGROUP SYSTEM
2 22 23
@<TRIPOS>COMMENT
> <Gold.Version>
2022.3.0

> <Gold.Id.Protein>
unknown|5adf_clean|pdb

> <Gold.Protein.RotatedTorsions>
[ 9076 9061 9060 9058 ] final -117.32 input   60.03 | X-H torsion
[ 8987 8971 8970 8967 ] final -105.36 input   59.98 | X-H torsion
[ 12872 12851 12850 12848 ] final   65.52 input   59.99 | X-H torsion
[ 5555 5539 5538 5535 ] final  157.58 input   60.00 | X-H torsion
[ 8337 8307 8306 8304 ] final -171.36 input   59.97 | X-H torsion
[ 8491 8475 8474 8471 ] final   52.44 input   60.02 | X-H torsion

> <Gold.Protein.ActiveResidues>
 MET341  HIS342  TRP414  ALA417  ARG419  CYS420  VAL421  GLY422  LEU460  SER462 
 ASN481  SER482  GLN483  LEU484  ARG486  ALA502  ASN503  TRP566  TYR567  GLY568 
 LEU569  PRO570  ALA571  VAL572  SER573  ASN574  MET575  LEU576  PHE589  SER590 
 GLY591  TRP592  TYR593  MET594  GLY595  GLU597  ILE598  ARG601  ASP602  ARG608 
 ILE653  VAL654  TRP683  PHE709  GLU710  TYR711  GLN712  ASP714  HEM750  H4B760 

> <Gold.Protein.RotatedAtoms>
  127.9619  248.6323  361.3754 H   0  0  0  0  0  0  0  0  0  0  0  0  # atno 5555 bound_to 5539
  126.4682  241.6233  361.5790 H   0  0  0  0  0  0  0  0  0  0  0  0  # atno 8337 bound_to 8307
  124.6523  251.1207  366.4967 H   0  0  0  0  0  0  0  0  0  0  0  0  # atno 8491 bound_to 8475
  116.2066  244.8892  368.7710 H   0  0  0  0  0  0  0  0  0  0  0  0  # atno 8987 bound_to 8971
  123.6242  239.8950  360.7956 H   0  0  0  0  0  0  0  0  0  0  0  0  # atno 9076 bound_to 9061
  120.1880  253.5495  354.8254 H   0  0  0  0  0  0  0  0  0  0  0  0  # atno 12872 bound_to 12851
  122.7603  240.9585  361.6740 LP  0  0  0  0  0  0  0  0  0  0  0  0  # atno 13471 bound_to 9061
  123.0617  241.2528  360.0963 LP  0  0  0  0  0  0  0  0  0  0  0  0  # atno 13472 bound_to 9061
  115.7748  243.3790  368.3456 LP  0  0  0  0  0  0  0  0  0  0  0  0  # atno 13487 bound_to 8971
  114.8979  244.6572  367.8321 LP  0  0  0  0  0  0  0  0  0  0  0  0  # atno 13488 bound_to 8971
  121.7824  253.3288  354.5868 LP  0  0  0  0  0  0  0  0  0  0  0  0  # atno 13503 bound_to 12851
  120.9071  254.2005  353.5189 LP  0  0  0  0  0  0  0  0  0  0  0  0  # atno 13504 bound_to 12851
  127.2932  248.2884  362.8185 LP  0  0  0  0  0  0  0  0  0  0  0  0  # atno 13506 bound_to 5539
  128.7684  248.9847  362.7441 LP  0  0  0  0  0  0  0  0  0  0  0  0  # atno 13507 bound_to 5539
  125.5523  242.5547  362.5494 LP  0  0  0  0  0  0  0  0  0  0  0  0  # atno 13510 bound_to 8307
  124.8606  241.7033  361.3397 LP  0  0  0  0  0  0  0  0  0  0  0  0  # atno 13511 bound_to 8307
  124.2409  249.5988  366.0934 LP  0  0  0  0  0  0  0  0  0  0  0  0  # atno 13522 bound_to 8475
  124.8407  249.9194  367.5780 LP  0  0  0  0  0  0  0  0  0  0  0  0  # atno 13523 bound_to 8475

> <Gold.Score>
     Fitness  S(hb_ext) S(vdw_ext)  S(hb_int)    S(int)      intcor
     50.82      10.94      31.31       0.00      -3.18      -0.77

> <Gold.Goldscore.Fitness>
50.8166

> <Gold.Goldscore.Internal.Vdw>
-3.0505

> <Gold.Goldscore.Internal.Torsion>
-0.8960

> <Gold.Goldscore.External.Vdw>
31.3122

> <Gold.Goldscore.Internal.HBond>
0.0000

> <Gold.Goldscore.External.HBond>
10.9435

> <Gold.Goldscore.Internal.Correction>
-0.7653

> <Gold.Goldscore.Hbonds>
donor molecule, donor type, donor heavy atom, donor atom, acceptor molecule, acceptor atom, score
      P1  H  8438  8461       L1    17  0.53
      P1  M 13283 13537       L1    11  0.99

> <Gold.Goldscore.Internal.Vdw.Weighted>
-3.0505

> <Gold.Goldscore.Internal.Torsion.Weighted>
-0.8960

> <Gold.Goldscore.External.Vdw.Weighted>
43.0543

> <Gold.Goldscore.Internal.HBond.Weighted>
0.0000

> <Gold.Goldscore.External.HBond.Weighted>
10.9435

> <Gold.Goldscore.Internal.Correction.Weighted>
-0.7653

> <Gold.Rescore>
     Score     S(PLP)   S(hbond)     S(cho)   S(metal)  DE(clash)   DE(tors)     intcor
     50.20     -45.60       0.44       0.00       1.00       1.89       0.42       ----

> <Gold.PLP.Fitness>
50.2018

> <Gold.PLP.PLP>
-45.6017

> <Gold.PLP.part.hbond>
-1.3029

> <Gold.PLP.part.metal>
-1.0000

> <Gold.PLP.part.buried>
5.6573

> <Gold.PLP.part.nonpolar>
-57.1842

> <Gold.PLP.part.repulsive>
6.2123

> <Gold.PLP.ligand.clash>
1.8886

> <Gold.PLP.ligand.torsion>
0.4187

> <Gold.PLP.Chemscore.Hbond>
0.4420

> <Gold.PLP.Chemscore.CHOScore>
0.0000

> <Gold.PLP.Chemscore.Metal>
1.0000

> <Gold.Chemscore.Hbonds>
donor molecule, donor type, donor heavy atom, donor atom, acceptor molecule, acceptor atom, score
      P1  H  8438  8461       L1    17  0.17
      P1  M 13283 13283       L1    11  1.00

> <Gold.PLP.Chemscore.Internal.Correction>
   9.000000E+99

