#       Name:                CT1002167954
#       Creating user name   hitesit
#       Creation time:       Sun Apr 16 20:16:50 2023


#       File generated by GOLD software.
#

@<TRIPOS>MOLECULE
CT1002167954|ligand_prepared|mol2|1|dock10
    29    30     1
SMALL
NO_CHARGES


@<TRIPOS>ATOM
      1 C1         124.1658 246.0313 356.0852 C.3            1 RES1               0.0000
      2 C2         122.9316 245.6115 356.9093 C.ar           1 RES1               0.0000
      3 C3         124.9071 244.7437 355.7375 C.2            1 RES1               0.0000
      4 C4         123.6325 246.7886 354.8741 C.2            1 RES1               0.0000
      5 C5         125.1354 246.9666 356.8445 C.3            1 RES1               0.0000
      6 C6         122.5566 244.2738 356.9924 C.ar           1 RES1               0.0000
      7 C7         122.1611 246.5483 357.5929 C.ar           1 RES1               0.0000
      8 N8         124.8275 244.2964 354.4516 N.am           1 RES1               0.0000
      9 O9         125.5194 244.1094 356.5878 O.2            1 RES1               0.0000
     10 N10        123.8175 246.2314 353.6359 N.am           1 RES1               0.0000
     11 O11        123.0392 247.8547 354.9822 O.2            1 RES1               0.0000
     12 C12        126.3599 247.3669 356.0366 C.3            1 RES1               0.0000
     13 C13        121.4531 243.8864 357.7344 C.ar           1 RES1               0.0000
     14 C14        121.0578 246.1587 358.3341 C.ar           1 RES1               0.0000
     15 C15        124.3637 245.0048 353.3724 C.2            1 RES1               0.0000
     16 C16        120.7033 244.8283 358.4060 C.ar           1 RES1               0.0000
     17 O17        124.4464 244.5485 352.2357 O.2            1 RES1               0.0000
     18 H18        124.5936 247.8743 357.1376 H              1 RES1               0.0000
     19 H19        125.4665 246.4631 357.7612 H              1 RES1               0.0000
     20 H20        123.1332 243.5187 356.4686 H              1 RES1               0.0000
     21 H21        122.4206 247.6007 357.5497 H              1 RES1               0.0000
     22 H22        125.1419 243.3473 354.2762 H              1 RES1               0.0000
     23 H23        123.5207 246.7821 352.8365 H              1 RES1               0.0000
     24 H24        127.0066 248.0227 356.6157 H              1 RES1               0.0000
     25 H25        126.9363 246.4898 355.7496 H              1 RES1               0.0000
     26 H26        126.0686 247.8927 355.1297 H              1 RES1               0.0000
     27 H27        121.1776 242.8383 357.7867 H              1 RES1               0.0000
     28 H28        120.4702 246.9035 358.8606 H              1 RES1               0.0000
     29 H29        119.8392 244.5245 358.9875 H              1 RES1               0.0000
@<TRIPOS>BOND
    1    1    2 1     
    2    1    3 1     
    3    1    4 1     
    4    1    5 1     
    5    2    6 ar    
    6    2    7 ar    
    7    3    8 1     
    8    3    9 2     
    9    4   10 1     
   10    4   11 2     
   11    5   12 1     
   12    5   18 1     
   13    5   19 1     
   14    6   13 ar    
   15    6   20 1     
   16    7   14 ar    
   17    7   21 1     
   18    8   15 1     
   19    8   22 1     
   20   10   15 1     
   21   10   23 1     
   22   12   24 1     
   23   12   25 1     
   24   12   26 1     
   25   13   16 ar    
   26   13   27 1     
   27   14   16 ar    
   28   14   28 1     
   29   15   17 2     
   30   16   29 1     
@<TRIPOS>SUBSTRUCTURE
      1 RES1           1
@<TRIPOS>SET
DONOR_HYDROGENS      STATIC     ATOMS    <user>   **** ""
2 22 23
ATOM$RED        STATIC     ATOMS    COLORGROUP SYSTEM
2 22 23
@<TRIPOS>COMMENT
> <Gold.Version>
2022.3.0

> <Gold.Id.Protein>
unknown|5adf_clean|pdb

> <Gold.Protein.RotatedTorsions>
[ 9076 9061 9060 9058 ] final  -13.72 input   60.03 | X-H torsion
[ 8987 8971 8970 8967 ] final -168.51 input   59.98 | X-H torsion
[ 12872 12851 12850 12848 ] final -173.39 input   59.99 | X-H torsion
[ 5555 5539 5538 5535 ] final -101.57 input   60.00 | X-H torsion
[ 8337 8307 8306 8304 ] final -121.39 input   59.97 | X-H torsion
[ 8491 8475 8474 8471 ] final  -32.00 input   60.02 | X-H torsion

> <Gold.Protein.ActiveResidues>
 MET341  HIS342  TRP414  ALA417  ARG419  CYS420  VAL421  GLY422  LEU460  SER462 
 ASN481  SER482  GLN483  LEU484  ARG486  ALA502  ASN503  TRP566  TYR567  GLY568 
 LEU569  PRO570  ALA571  VAL572  SER573  ASN574  MET575  LEU576  PHE589  SER590 
 GLY591  TRP592  TYR593  MET594  GLY595  GLU597  ILE598  ARG601  ASP602  ARG608 
 ILE653  VAL654  TRP683  PHE709  GLU710  TYR711  GLN712  ASP714  HEM750  H4B760 

> <Gold.Protein.RotatedAtoms>
  128.8463  249.0289  362.4445 H   0  0  0  0  0  0  0  0  0  0  0  0  # atno 5555 bound_to 5539
  125.8650  241.3691  361.1350 H   0  0  0  0  0  0  0  0  0  0  0  0  # atno 8337 bound_to 8307
  124.2419  250.1203  365.8537 H   0  0  0  0  0  0  0  0  0  0  0  0  # atno 8491 bound_to 8475
  116.3382  243.9178  368.7844 H   0  0  0  0  0  0  0  0  0  0  0  0  # atno 8987 bound_to 8971
  123.2045  241.0528  359.9892 H   0  0  0  0  0  0  0  0  0  0  0  0  # atno 9076 bound_to 9061
  120.9255  254.1971  353.5235 H   0  0  0  0  0  0  0  0  0  0  0  0  # atno 12872 bound_to 12851
  123.5609  239.8759  361.0554 LP  0  0  0  0  0  0  0  0  0  0  0  0  # atno 13471 bound_to 9061
  122.6836  241.1701  361.5266 LP  0  0  0  0  0  0  0  0  0  0  0  0  # atno 13472 bound_to 9061
  115.0183  243.7679  367.8443 LP  0  0  0  0  0  0  0  0  0  0  0  0  # atno 13487 bound_to 8971
  115.5218  245.2467  368.3199 LP  0  0  0  0  0  0  0  0  0  0  0  0  # atno 13488 bound_to 8971
  120.1726  253.5555  354.8155 LP  0  0  0  0  0  0  0  0  0  0  0  0  # atno 13503 bound_to 12851
  121.7744  253.3218  354.6009 LP  0  0  0  0  0  0  0  0  0  0  0  0  # atno 13504 bound_to 12851
  127.6853  248.4991  361.4348 LP  0  0  0  0  0  0  0  0  0  0  0  0  # atno 13506 bound_to 5539
  127.4854  248.3745  363.0507 LP  0  0  0  0  0  0  0  0  0  0  0  0  # atno 13507 bound_to 5539
  126.2932  242.3068  362.3941 LP  0  0  0  0  0  0  0  0  0  0  0  0  # atno 13510 bound_to 8307
  124.7272  242.2070  361.9421 LP  0  0  0  0  0  0  0  0  0  0  0  0  # atno 13511 bound_to 8307
  124.6529  249.4615  367.2837 LP  0  0  0  0  0  0  0  0  0  0  0  0  # atno 13522 bound_to 8475
  124.8421  251.0644  367.0353 LP  0  0  0  0  0  0  0  0  0  0  0  0  # atno 13523 bound_to 8475

> <Gold.Score>
     Fitness  S(hb_ext) S(vdw_ext)  S(hb_int)    S(int)      intcor
     27.82       6.46      17.03       0.00      -2.07      -0.77

> <Gold.Goldscore.Fitness>
27.8199

> <Gold.Goldscore.Internal.Vdw>
-2.4650

> <Gold.Goldscore.Internal.Torsion>
-0.3676

> <Gold.Goldscore.External.Vdw>
17.0346

> <Gold.Goldscore.Internal.HBond>
0.0000

> <Gold.Goldscore.External.HBond>
6.4645

> <Gold.Goldscore.Internal.Correction>
-0.7653

> <Gold.Goldscore.Hbonds>
donor molecule, donor type, donor heavy atom, donor atom, acceptor molecule, acceptor atom, score
      P1  H  9501  9536       L1     9  0.08
      L1  H    10    23       P1 13401  1.00

> <Gold.Goldscore.Internal.Vdw.Weighted>
-2.4650

> <Gold.Goldscore.Internal.Torsion.Weighted>
-0.3676

> <Gold.Goldscore.External.Vdw.Weighted>
23.4226

> <Gold.Goldscore.Internal.HBond.Weighted>
0.0000

> <Gold.Goldscore.External.HBond.Weighted>
6.4645

> <Gold.Goldscore.Internal.Correction.Weighted>
-0.7653

> <Gold.Rescore>
     Score     S(PLP)   S(hbond)     S(cho)   S(metal)  DE(clash)   DE(tors)     intcor
     17.60     -15.68       1.35       0.00       0.00       1.88       0.13       ----

> <Gold.PLP.Fitness>
17.6011

> <Gold.PLP.PLP>
-15.6776

> <Gold.PLP.part.hbond>
-3.6482

> <Gold.PLP.part.metal>
0.0000

> <Gold.PLP.part.buried>
0.6369

> <Gold.PLP.part.nonpolar>
-13.5515

> <Gold.PLP.part.repulsive>
0.6034

> <Gold.PLP.ligand.clash>
1.8824

> <Gold.PLP.ligand.torsion>
0.1269

> <Gold.PLP.Chemscore.Hbond>
1.3533

> <Gold.PLP.Chemscore.CHOScore>
0.0000

> <Gold.PLP.Chemscore.Metal>
0.0000

> <Gold.Chemscore.Hbonds>
donor molecule, donor type, donor heavy atom, donor atom, acceptor molecule, acceptor atom, score
      L1  H    10    23       P1 13401  0.46
      P1  H  9501  9536       L1     9  0.78

> <Gold.PLP.Chemscore.Internal.Correction>
   9.000000E+99

