#       Name:                CT1002167954
#       Creating user name   hitesit
#       Creation time:       Sun Apr 16 20:16:49 2023


#       File generated by GOLD software.
#

@<TRIPOS>MOLECULE
CT1002167954|ligand_prepared|mol2|1|dock9
    29    30     1
SMALL
NO_CHARGES


@<TRIPOS>ATOM
      1 C1         123.6660 244.2122 356.7685 C.3            1 RES1               0.0000
      2 C2         123.2487 244.5300 355.3181 C.ar           1 RES1               0.0000
      3 C3         125.1771 244.4134 356.8334 C.2            1 RES1               0.0000
      4 C4         122.8730 245.1627 357.6586 C.2            1 RES1               0.0000
      5 C5         123.3438 242.7651 357.2085 C.3            1 RES1               0.0000
      6 C6         123.6559 245.7118 354.7064 C.ar           1 RES1               0.0000
      7 C7         122.4603 243.6516 354.5796 C.ar           1 RES1               0.0000
      8 N8         125.6397 245.5232 357.4770 N.am           1 RES1               0.0000
      9 O9         125.9497 243.6309 356.2939 O.2            1 RES1               0.0000
     10 N10        123.5670 246.1092 358.3660 N.am           1 RES1               0.0000
     11 O11        121.6520 245.1114 357.7409 O.2            1 RES1               0.0000
     12 C12        123.9128 242.3970 358.5697 C.3            1 RES1               0.0000
     13 C13        123.2908 246.0036 353.4026 C.ar           1 RES1               0.0000
     14 C14        122.0961 243.9454 353.2759 C.ar           1 RES1               0.0000
     15 C15        124.9115 246.3523 358.2918 C.2            1 RES1               0.0000
     16 C16        122.5112 245.1205 352.6864 C.ar           1 RES1               0.0000
     17 O17        125.4550 247.2576 358.9180 O.2            1 RES1               0.0000
     18 H18        122.2545 242.6384 357.2352 H              1 RES1               0.0000
     19 H19        123.7438 242.0708 356.4592 H              1 RES1               0.0000
     20 H20        124.2678 246.4200 355.2552 H              1 RES1               0.0000
     21 H21        122.1213 242.7216 355.0233 H              1 RES1               0.0000
     22 H22        126.6175 245.7585 357.3396 H              1 RES1               0.0000
     23 H23        123.0318 246.6858 359.0074 H              1 RES1               0.0000
     24 H24        123.6578 241.3719 358.8300 H              1 RES1               0.0000
     25 H25        124.9970 242.4875 358.5719 H              1 RES1               0.0000
     26 H26        123.5165 243.0517 359.3432 H              1 RES1               0.0000
     27 H27        123.6189 246.9304 352.9437 H              1 RES1               0.0000
     28 H28        121.4819 243.2478 352.7162 H              1 RES1               0.0000
     29 H29        122.2256 245.3491 351.6649 H              1 RES1               0.0000
@<TRIPOS>BOND
    1    1    2 1     
    2    1    3 1     
    3    1    4 1     
    4    1    5 1     
    5    2    6 ar    
    6    2    7 ar    
    7    3    8 1     
    8    3    9 2     
    9    4   10 1     
   10    4   11 2     
   11    5   12 1     
   12    5   18 1     
   13    5   19 1     
   14    6   13 ar    
   15    6   20 1     
   16    7   14 ar    
   17    7   21 1     
   18    8   15 1     
   19    8   22 1     
   20   10   15 1     
   21   10   23 1     
   22   12   24 1     
   23   12   25 1     
   24   12   26 1     
   25   13   16 ar    
   26   13   27 1     
   27   14   16 ar    
   28   14   28 1     
   29   15   17 2     
   30   16   29 1     
@<TRIPOS>SUBSTRUCTURE
      1 RES1           1
@<TRIPOS>SET
DONOR_HYDROGENS      STATIC     ATOMS    <user>   **** ""
2 22 23
ATOM$RED        STATIC     ATOMS    COLORGROUP SYSTEM
2 22 23
@<TRIPOS>COMMENT
> <Gold.Version>
2022.3.0

> <Gold.Id.Protein>
unknown|5adf_clean|pdb

> <Gold.Protein.RotatedTorsions>
[ 9076 9061 9060 9058 ] final  114.38 input   60.03 | X-H torsion
[ 8987 8971 8970 8967 ] final   95.15 input   59.98 | X-H torsion
[ 12872 12851 12850 12848 ] final  -13.73 input   59.99 | X-H torsion
[ 5555 5539 5538 5535 ] final   74.64 input   60.00 | X-H torsion
[ 8337 8307 8306 8304 ] final  128.16 input   59.97 | X-H torsion
[ 8491 8475 8474 8471 ] final  -86.90 input   60.02 | X-H torsion

> <Gold.Protein.ActiveResidues>
 MET341  HIS342  TRP414  ALA417  ARG419  CYS420  VAL421  GLY422  LEU460  SER462 
 ASN481  SER482  GLN483  LEU484  ARG486  ALA502  ASN503  TRP566  TYR567  GLY568 
 LEU569  PRO570  ALA571  VAL572  SER573  ASN574  MET575  LEU576  PHE589  SER590 
 GLY591  TRP592  TYR593  MET594  GLY595  GLU597  ILE598  ARG601  ASP602  ARG608 
 ILE653  VAL654  TRP683  PHE709  GLU710  TYR711  GLN712  ASP714  HEM750  H4B760 

> <Gold.Protein.RotatedAtoms>
  127.1625  248.2396  362.2378 H   0  0  0  0  0  0  0  0  0  0  0  0  # atno 5555 bound_to 5539
  126.3875  242.2181  362.3063 H   0  0  0  0  0  0  0  0  0  0  0  0  # atno 8337 bound_to 8307
  124.2955  249.4089  366.3395 H   0  0  0  0  0  0  0  0  0  0  0  0  # atno 8491 bound_to 8475
  115.2633  243.5106  367.9937 H   0  0  0  0  0  0  0  0  0  0  0  0  # atno 8987 bound_to 8971
  122.7177  241.0657  361.6015 H   0  0  0  0  0  0  0  0  0  0  0  0  # atno 9076 bound_to 9061
  121.3072  253.1763  355.0098 H   0  0  0  0  0  0  0  0  0  0  0  0  # atno 12872 bound_to 12851
  123.1351  241.1581  360.0311 LP  0  0  0  0  0  0  0  0  0  0  0  0  # atno 13471 bound_to 9061
  123.5993  239.8749  360.9280 LP  0  0  0  0  0  0  0  0  0  0  0  0  # atno 13472 bound_to 9061
  115.2241  245.1339  368.1009 LP  0  0  0  0  0  0  0  0  0  0  0  0  # atno 13487 bound_to 8971
  116.3988  244.2908  368.8597 LP  0  0  0  0  0  0  0  0  0  0  0  0  # atno 13488 bound_to 8971
  121.5225  253.9953  353.6203 LP  0  0  0  0  0  0  0  0  0  0  0  0  # atno 13503 bound_to 12851
  120.0401  253.9098  354.2997 LP  0  0  0  0  0  0  0  0  0  0  0  0  # atno 13504 bound_to 12851
  128.3821  248.7949  363.1608 LP  0  0  0  0  0  0  0  0  0  0  0  0  # atno 13506 bound_to 5539
  128.4849  248.8739  361.5330 LP  0  0  0  0  0  0  0  0  0  0  0  0  # atno 13507 bound_to 5539
  124.7805  242.2936  362.0615 LP  0  0  0  0  0  0  0  0  0  0  0  0  # atno 13510 bound_to 8307
  125.7138  241.3653  361.0951 LP  0  0  0  0  0  0  0  0  0  0  0  0  # atno 13511 bound_to 8307
  124.9051  250.2283  367.6064 LP  0  0  0  0  0  0  0  0  0  0  0  0  # atno 13522 bound_to 8475
  124.5359  251.0141  366.2233 LP  0  0  0  0  0  0  0  0  0  0  0  0  # atno 13523 bound_to 8475

> <Gold.Score>
     Fitness  S(hb_ext) S(vdw_ext)  S(hb_int)    S(int)      intcor
     37.57       5.78      23.20       0.00      -0.10      -0.77

> <Gold.Goldscore.Fitness>
37.5739

> <Gold.Goldscore.Internal.Vdw>
-0.4084

> <Gold.Goldscore.Internal.Torsion>
-0.4579

> <Gold.Goldscore.External.Vdw>
23.1998

> <Gold.Goldscore.Internal.HBond>
0.0000

> <Gold.Goldscore.External.HBond>
5.7752

> <Gold.Goldscore.Internal.Correction>
-0.7653

> <Gold.Goldscore.Hbonds>
donor molecule, donor type, donor heavy atom, donor atom, acceptor molecule, acceptor atom, score
      P1  H  9501  9536       L1     9  0.96

> <Gold.Goldscore.Internal.Vdw.Weighted>
-0.4084

> <Gold.Goldscore.Internal.Torsion.Weighted>
-0.4579

> <Gold.Goldscore.External.Vdw.Weighted>
31.8997

> <Gold.Goldscore.Internal.HBond.Weighted>
0.0000

> <Gold.Goldscore.External.HBond.Weighted>
5.7752

> <Gold.Goldscore.Internal.Correction.Weighted>
-0.7653

> <Gold.Rescore>
     Score     S(PLP)   S(hbond)     S(cho)   S(metal)  DE(clash)   DE(tors)     intcor
     18.84     -18.81       0.75       0.00       0.00       0.00       1.11       ----

> <Gold.PLP.Fitness>
18.8369

> <Gold.PLP.PLP>
-18.8062

> <Gold.PLP.part.hbond>
-2.6564

> <Gold.PLP.part.metal>
0.0000

> <Gold.PLP.part.buried>
3.2266

> <Gold.PLP.part.nonpolar>
-21.7291

> <Gold.PLP.part.repulsive>
1.9163

> <Gold.PLP.ligand.clash>
0.0000

> <Gold.PLP.ligand.torsion>
1.1126

> <Gold.PLP.Chemscore.Hbond>
0.7520

> <Gold.PLP.Chemscore.CHOScore>
0.0000

> <Gold.PLP.Chemscore.Metal>
0.0000

> <Gold.Chemscore.Hbonds>
donor molecule, donor type, donor heavy atom, donor atom, acceptor molecule, acceptor atom, score
      P1  H  9501  9536       L1     9  0.83

> <Gold.PLP.Chemscore.Internal.Correction>
   9.000000E+99

