#       Name:                CT1002167954
#       Creating user name   hitesit
#       Creation time:       Sun Apr 16 20:16:51 2023


#       File generated by GOLD software.
#

@<TRIPOS>MOLECULE
CT1002167954|ligand_prepared|mol2|1|dock9
    29    30     1
SMALL
NO_CHARGES


@<TRIPOS>ATOM
      1 C1          15.8235   1.7653  -5.6516 C.3            1 RES1               0.0000
      2 C2          16.3733   0.3332  -5.8109 C.ar           1 RES1               0.0000
      3 C3          15.7376   2.0268  -4.1507 C.2            1 RES1               0.0000
      4 C4          16.7962   2.6800  -6.3877 C.2            1 RES1               0.0000
      5 C5          14.4190   1.9675  -6.2666 C.3            1 RES1               0.0000
      6 C6          17.4980  -0.0771  -5.1014 C.ar           1 RES1               0.0000
      7 C7          15.7660  -0.5882  -6.6599 C.ar           1 RES1               0.0000
      8 N8          16.6650   2.8619  -3.6008 N.am           1 RES1               0.0000
      9 O9          14.8933   1.4776  -3.4537 O.2            1 RES1               0.0000
     10 N10         17.5146   3.5821  -5.6475 N.am           1 RES1               0.0000
     11 O11         16.9591   2.6164  -7.6000 O.2            1 RES1               0.0000
     12 C12         13.8012   3.3209  -5.9526 C.3            1 RES1               0.0000
     13 C13         17.9960  -1.3627  -5.2336 C.ar           1 RES1               0.0000
     14 C14         16.2658  -1.8734  -6.7909 C.ar           1 RES1               0.0000
     15 C15         17.5156   3.6935  -4.2838 C.2            1 RES1               0.0000
     16 C16         17.3800  -2.2618  -6.0780 C.ar           1 RES1               0.0000
     17 O17         18.2305   4.4930  -3.6865 O.2            1 RES1               0.0000
     18 H18         14.4911   1.8562  -7.3555 H              1 RES1               0.0000
     19 H19         13.7531   1.1801  -5.8925 H              1 RES1               0.0000
     20 H20         17.9975   0.6173  -4.4340 H              1 RES1               0.0000
     21 H21         14.8889  -0.3044  -7.2315 H              1 RES1               0.0000
     22 H22         16.7322   2.8687  -2.5880 H              1 RES1               0.0000
     23 H23         18.1031   4.2307  -6.1607 H              1 RES1               0.0000
     24 H24         12.8170   3.4106  -6.4076 H              1 RES1               0.0000
     25 H25         13.6915   3.4551  -4.8785 H              1 RES1               0.0000
     26 H26         14.4251   4.1272  -6.3329 H              1 RES1               0.0000
     27 H27         18.8740  -1.6631  -4.6714 H              1 RES1               0.0000
     28 H28         15.7782  -2.5774  -7.4570 H              1 RES1               0.0000
     29 H29         17.7701  -3.2690  -6.1811 H              1 RES1               0.0000
@<TRIPOS>BOND
    1    1    2 1     
    2    1    3 1     
    3    1    4 1     
    4    1    5 1     
    5    2    6 ar    
    6    2    7 ar    
    7    3    8 1     
    8    3    9 2     
    9    4   10 1     
   10    4   11 2     
   11    5   12 1     
   12    5   18 1     
   13    5   19 1     
   14    6   13 ar    
   15    6   20 1     
   16    7   14 ar    
   17    7   21 1     
   18    8   15 1     
   19    8   22 1     
   20   10   15 1     
   21   10   23 1     
   22   12   24 1     
   23   12   25 1     
   24   12   26 1     
   25   13   16 ar    
   26   13   27 1     
   27   14   16 ar    
   28   14   28 1     
   29   15   17 2     
   30   16   29 1     
@<TRIPOS>SUBSTRUCTURE
      1 RES1           1
@<TRIPOS>SET
DONOR_HYDROGENS      STATIC     ATOMS    <user>   **** ""
2 22 23
ATOM$RED        STATIC     ATOMS    COLORGROUP SYSTEM
2 22 23
@<TRIPOS>COMMENT
> <Gold.Version>
2022.3.0

> <Gold.Id.Protein>
unknown|3nx8_clean|pdb

> <Gold.Protein.RotatedTorsions>
[ 3590 3581 3580 3578 ] final   91.65 input   60.00 | X-H torsion
[ 3510 3501 3500 3498 ] final  141.54 input   59.99 | X-H torsion
[ 3778 3769 3768 3766 ] final  126.44 input   60.02 | X-H torsion
[ 2535 2524 2523 2522 ] final   31.23 input   60.02 | X-H torsion
[ 3063 3056 3054 3051 ] final  -74.28 input   59.97 | X-H torsion
[ 5056 5047 5046 5044 ] final  115.63 input   59.99 | X-H torsion
[  550  544  542  539 ] final   57.05 input   60.01 | X-H torsion
[ 1860 1855 1854 1851 ] final  -38.12 input   60.02 | X-H torsion
[ 3111 3104 3103 3101 ] final   -0.46 input   60.01 | X-H torsion
[  567  564  563  560 ] final  -34.10 input   60.03 | X-H torsion

> <Gold.Protein.ActiveResidues>
 LEU49   GLY50   THR51   GLY52   SER53   PHE54   VAL57   LEU82   GLN84   HIS87  
 GLU127  MET128  PHE129  SER130  LEU132  ARG133  ARG134  ILE135  GLY136  ARG137 
 ARG165  ASP166  LEU167  LYS168  PRO169  GLU170  ASN171  LEU172  LEU173  THR183 
 ASP184  GLY186  PHE187  TPO197  LEU198  CYS199  GLY200  THR201  PRO202  GLU203 
 TYR204  LEU205  ILE209  ILE210  VAL226  LEU227  TYR229  GLU230  ALA233  GLY234 
 TYR235  PRO236  PRO237  PHE238  PHE239  ALA240  ASP241  GLN242  PRO243  ILE244 
 GLN245  ILE246  TYR247  ARG256  PHE257  PRO258  SER259  PHE327  ASP328  TYR330 

> <Gold.Protein.RotatedAtoms>
   20.1472   10.8094   -4.8216 H   0  0  0  0  0  0  0  0  0  0  0  0  # atno 550  bound_to 544 
   22.2730    9.3851    2.6218 H   0  0  0  0  0  0  0  0  0  0  0  0  # atno 567  bound_to 564 
   25.1314    4.5642  -12.1484 H   0  0  0  0  0  0  0  0  0  0  0  0  # atno 1860 bound_to 1855
   18.6812    3.3618   -0.5820 H   0  0  0  0  0  0  0  0  0  0  0  0  # atno 2535 bound_to 2524
   19.3700    4.8692   -0.6046 H   0  0  0  0  0  0  0  0  0  0  0  0  # atno 2536 bound_to 2524
   18.8335    4.1815   -2.0146 H   0  0  0  0  0  0  0  0  0  0  0  0  # atno 2537 bound_to 2524
   17.1405    2.9046   -0.0396 H   0  0  0  0  0  0  0  0  0  0  0  0  # atno 3063 bound_to 3056
   20.5715   -4.1189   -4.3900 H   0  0  0  0  0  0  0  0  0  0  0  0  # atno 3111 bound_to 3104
   16.1691  -15.2085   -7.4999 H   0  0  0  0  0  0  0  0  0  0  0  0  # atno 3510 bound_to 3501
   15.0488  -13.7969  -12.5571 H   0  0  0  0  0  0  0  0  0  0  0  0  # atno 3590 bound_to 3581
    8.8108    0.8428    2.2097 H   0  0  0  0  0  0  0  0  0  0  0  0  # atno 3778 bound_to 3769
   22.8478   10.1255   -8.4767 H   0  0  0  0  0  0  0  0  0  0  0  0  # atno 5056 bound_to 5047
   15.9975  -14.2087  -11.3010 LP  0  0  0  0  0  0  0  0  0  0  0  0  # atno 5350 bound_to 3581
   16.6569  -13.9280  -12.7683 LP  0  0  0  0  0  0  0  0  0  0  0  0  # atno 5351 bound_to 3581
   16.0129  -13.7674   -8.2400 LP  0  0  0  0  0  0  0  0  0  0  0  0  # atno 5358 bound_to 3501
   15.1830  -14.0782   -6.8684 LP  0  0  0  0  0  0  0  0  0  0  0  0  # atno 5359 bound_to 3501
   10.2916    0.1826    2.3514 LP  0  0  0  0  0  0  0  0  0  0  0  0  # atno 5412 bound_to 3769
    9.4555    0.6132    3.6863 LP  0  0  0  0  0  0  0  0  0  0  0  0  # atno 5413 bound_to 3769
   18.5483    2.1113   -0.2323 LP  0  0  0  0  0  0  0  0  0  0  0  0  # atno 5416 bound_to 3056
   17.9374    2.3444    1.2640 LP  0  0  0  0  0  0  0  0  0  0  0  0  # atno 5417 bound_to 3056
   23.7140    9.9319   -9.8406 LP  0  0  0  0  0  0  0  0  0  0  0  0  # atno 5426 bound_to 5047
   22.0872    9.7955   -9.8769 LP  0  0  0  0  0  0  0  0  0  0  0  0  # atno 5427 bound_to 5047
   20.6975   11.5382   -6.1686 LP  0  0  0  0  0  0  0  0  0  0  0  0  # atno 5430 bound_to 544 
   19.2776   12.0013   -5.5084 LP  0  0  0  0  0  0  0  0  0  0  0  0  # atno 5431 bound_to 544 
   26.4281    5.3879  -12.6857 LP  0  0  0  0  0  0  0  0  0  0  0  0  # atno 5436 bound_to 1855
   26.5458    4.4546  -11.3509 LP  0  0  0  0  0  0  0  0  0  0  0  0  # atno 5437 bound_to 1855
   21.0077   -5.5558   -3.7618 LP  0  0  0  0  0  0  0  0  0  0  0  0  # atno 5458 bound_to 3104
   21.9760   -4.2537   -3.5784 LP  0  0  0  0  0  0  0  0  0  0  0  0  # atno 5459 bound_to 3104
   22.2369    8.7152    4.1047 LP  0  0  0  0  0  0  0  0  0  0  0  0  # atno 5468 bound_to 564 
   21.6836   10.2348    3.8787 LP  0  0  0  0  0  0  0  0  0  0  0  0  # atno 5469 bound_to 564 

> <Gold.Score>
     Fitness  S(hb_ext) S(vdw_ext)  S(hb_int)    S(int)      intcor
     29.31       5.08      17.68       0.00      -0.08      -0.76

> <Gold.Goldscore.Fitness>
29.3119

> <Gold.Goldscore.Internal.Vdw>
-0.3798

> <Gold.Goldscore.Internal.Torsion>
-0.4612

> <Gold.Goldscore.External.Vdw>
17.6832

> <Gold.Goldscore.Internal.HBond>
0.0000

> <Gold.Goldscore.External.HBond>
5.0799

> <Gold.Goldscore.Internal.Correction>
-0.7585

> <Gold.Goldscore.Hbonds>
donor molecule, donor type, donor heavy atom, donor atom, acceptor molecule, acceptor atom, score
      P1  H  2524  2537       L1    17  0.81
      L1  H     8    22       P1  3056  0.10

> <Gold.Goldscore.Internal.Vdw.Weighted>
-0.3798

> <Gold.Goldscore.Internal.Torsion.Weighted>
-0.4612

> <Gold.Goldscore.External.Vdw.Weighted>
24.3144

> <Gold.Goldscore.Internal.HBond.Weighted>
0.0000

> <Gold.Goldscore.External.HBond.Weighted>
5.0799

> <Gold.Goldscore.Internal.Correction.Weighted>
-0.7585

> <Gold.Rescore>
     Score     S(PLP)   S(hbond)     S(cho)   S(metal)  DE(clash)   DE(tors)     intcor
     23.11     -22.34       0.99       0.00       0.00       0.00       1.10       ----

> <Gold.PLP.Fitness>
23.1098

> <Gold.PLP.PLP>
-22.3417

> <Gold.PLP.part.hbond>
-2.0000

> <Gold.PLP.part.metal>
0.0000

> <Gold.PLP.part.buried>
-3.7022

> <Gold.PLP.part.nonpolar>
-18.5860

> <Gold.PLP.part.repulsive>
0.3534

> <Gold.PLP.ligand.clash>
0.0000

> <Gold.PLP.ligand.torsion>
1.1028

> <Gold.PLP.Chemscore.Hbond>
0.9913

> <Gold.PLP.Chemscore.CHOScore>
0.0000

> <Gold.PLP.Chemscore.Metal>
0.0000

> <Gold.Chemscore.Hbonds>
donor molecule, donor type, donor heavy atom, donor atom, acceptor molecule, acceptor atom, score
      P1  H  2524  2537       L1    17  1.00

> <Gold.PLP.Chemscore.Internal.Correction>
   9.000000E+99

