#       Name:                CT1002167954
#       Creating user name   hitesit
#       Creation time:       Sun Apr 16 20:16:46 2023


#       File generated by GOLD software.
#

@<TRIPOS>MOLECULE
CT1002167954|ligand_prepared|mol2|1|dock4
    29    30     1
SMALL
NO_CHARGES


@<TRIPOS>ATOM
      1 C1          14.8202  -1.7174  -9.1086 C.3            1 RES1               0.0000
      2 C2          15.7581  -1.3257  -7.9485 C.ar           1 RES1               0.0000
      3 C3          15.7196  -2.0165 -10.3044 C.2            1 RES1               0.0000
      4 C4          14.0153  -2.9166  -8.6201 C.2            1 RES1               0.0000
      5 C5          13.8239  -0.6046  -9.5095 C.3            1 RES1               0.0000
      6 C6          15.9598  -2.1909  -6.8773 C.ar           1 RES1               0.0000
      7 C7          16.4294  -0.1059  -7.9368 C.ar           1 RES1               0.0000
      8 N8          15.8820  -3.3225 -10.6617 N.am           1 RES1               0.0000
      9 O9          16.3087  -1.1230 -10.9001 O.2            1 RES1               0.0000
     10 N10         14.2108  -4.1194  -9.2469 N.am           1 RES1               0.0000
     11 O11         13.2258  -2.8346  -7.6872 O.2            1 RES1               0.0000
     12 C12         12.8662  -1.0097 -10.6189 C.3            1 RES1               0.0000
     13 C13         16.8043  -1.8505  -5.8337 C.ar           1 RES1               0.0000
     14 C14         17.2733   0.2327  -6.8920 C.ar           1 RES1               0.0000
     15 C15         15.1302  -4.3836 -10.2253 C.2            1 RES1               0.0000
     16 C16         17.4619  -0.6388  -5.8405 C.ar           1 RES1               0.0000
     17 O17         15.2845  -5.5043 -10.7020 O.2            1 RES1               0.0000
     18 H18         13.2401  -0.3183  -8.6260 H              1 RES1               0.0000
     19 H19         14.3908   0.2758  -9.8365 H              1 RES1               0.0000
     20 H20         15.4489  -3.1477  -6.8535 H              1 RES1               0.0000
     21 H21         16.2954   0.5958  -8.7530 H              1 RES1               0.0000
     22 H22         16.6320  -3.5294 -11.3137 H              1 RES1               0.0000
     23 H23         13.6158  -4.8891  -8.9573 H              1 RES1               0.0000
     24 H24         12.1894  -0.1931 -10.8615 H              1 RES1               0.0000
     25 H25         13.4121  -1.2768 -11.5214 H              1 RES1               0.0000
     26 H26         12.2682  -1.8675 -10.3181 H              1 RES1               0.0000
     27 H27         16.9482  -2.5392  -5.0078 H              1 RES1               0.0000
     28 H28         17.7883   1.1876  -6.9012 H              1 RES1               0.0000
     29 H29         18.1237  -0.3725  -5.0230 H              1 RES1               0.0000
@<TRIPOS>BOND
    1    1    2 1     
    2    1    3 1     
    3    1    4 1     
    4    1    5 1     
    5    2    6 ar    
    6    2    7 ar    
    7    3    8 1     
    8    3    9 2     
    9    4   10 1     
   10    4   11 2     
   11    5   12 1     
   12    5   18 1     
   13    5   19 1     
   14    6   13 ar    
   15    6   20 1     
   16    7   14 ar    
   17    7   21 1     
   18    8   15 1     
   19    8   22 1     
   20   10   15 1     
   21   10   23 1     
   22   12   24 1     
   23   12   25 1     
   24   12   26 1     
   25   13   16 ar    
   26   13   27 1     
   27   14   16 ar    
   28   14   28 1     
   29   15   17 2     
   30   16   29 1     
@<TRIPOS>SUBSTRUCTURE
      1 RES1           1
@<TRIPOS>SET
DONOR_HYDROGENS      STATIC     ATOMS    <user>   **** ""
2 22 23
ATOM$RED        STATIC     ATOMS    COLORGROUP SYSTEM
2 22 23
@<TRIPOS>COMMENT
> <Gold.Version>
2022.3.0

> <Gold.Id.Protein>
unknown|3nx8_clean|pdb

> <Gold.Protein.RotatedTorsions>
[ 3590 3581 3580 3578 ] final   95.44 input   60.00 | X-H torsion
[ 3510 3501 3500 3498 ] final   60.54 input   59.99 | X-H torsion
[ 3778 3769 3768 3766 ] final   92.24 input   60.02 | X-H torsion
[ 2535 2524 2523 2522 ] final  175.57 input   60.02 | X-H torsion
[ 3063 3056 3054 3051 ] final   83.69 input   59.97 | X-H torsion
[ 5056 5047 5046 5044 ] final   89.73 input   59.99 | X-H torsion
[  550  544  542  539 ] final   65.93 input   60.01 | X-H torsion
[ 1860 1855 1854 1851 ] final  -67.43 input   60.02 | X-H torsion
[ 3111 3104 3103 3101 ] final    5.89 input   60.01 | X-H torsion
[  567  564  563  560 ] final    5.93 input   60.03 | X-H torsion

> <Gold.Protein.ActiveResidues>
 LEU49   GLY50   THR51   GLY52   SER53   PHE54   VAL57   LEU82   GLN84   HIS87  
 GLU127  MET128  PHE129  SER130  LEU132  ARG133  ARG134  ILE135  GLY136  ARG137 
 ARG165  ASP166  LEU167  LYS168  PRO169  GLU170  ASN171  LEU172  LEU173  THR183 
 ASP184  GLY186  PHE187  TPO197  LEU198  CYS199  GLY200  THR201  PRO202  GLU203 
 TYR204  LEU205  ILE209  ILE210  VAL226  LEU227  TYR229  GLU230  ALA233  GLY234 
 TYR235  PRO236  PRO237  PHE238  PHE239  ALA240  ASP241  GLN242  PRO243  ILE244 
 GLN245  ILE246  TYR247  ARG256  PHE257  PRO258  SER259  PHE327  ASP328  TYR330 

> <Gold.Protein.RotatedAtoms>
   20.0203   10.8581   -4.7713 H   0  0  0  0  0  0  0  0  0  0  0  0  # atno 550  bound_to 544 
   22.0198    9.9595    2.7518 H   0  0  0  0  0  0  0  0  0  0  0  0  # atno 567  bound_to 564 
   25.2139    4.8564  -12.5122 H   0  0  0  0  0  0  0  0  0  0  0  0  # atno 1860 bound_to 1855
   19.3697    4.9999   -0.9872 H   0  0  0  0  0  0  0  0  0  0  0  0  # atno 2535 bound_to 2524
   18.6815    3.8195   -1.9254 H   0  0  0  0  0  0  0  0  0  0  0  0  # atno 2536 bound_to 2524
   18.8341    3.5948   -0.2899 H   0  0  0  0  0  0  0  0  0  0  0  0  # atno 2537 bound_to 2524
   18.4205    2.0849    0.9939 H   0  0  0  0  0  0  0  0  0  0  0  0  # atno 3063 bound_to 3056
   20.6367   -4.0396   -4.3755 H   0  0  0  0  0  0  0  0  0  0  0  0  # atno 3111 bound_to 3104
   16.3199  -14.3104   -8.3065 H   0  0  0  0  0  0  0  0  0  0  0  0  # atno 3510 bound_to 3501
   15.0756  -13.7866  -12.6119 H   0  0  0  0  0  0  0  0  0  0  0  0  # atno 3590 bound_to 3581
    9.2025    0.6525    1.8724 H   0  0  0  0  0  0  0  0  0  0  0  0  # atno 3778 bound_to 3769
   23.2587   10.1424   -8.5599 H   0  0  0  0  0  0  0  0  0  0  0  0  # atno 5056 bound_to 5047
   15.9358  -14.2032  -11.2950 LP  0  0  0  0  0  0  0  0  0  0  0  0  # atno 5350 bound_to 3581
   16.6916  -13.9438  -12.7191 LP  0  0  0  0  0  0  0  0  0  0  0  0  # atno 5351 bound_to 3581
   15.2610  -13.6134   -7.2858 LP  0  0  0  0  0  0  0  0  0  0  0  0  # atno 5358 bound_to 3501
   15.7830  -15.1361   -7.0107 LP  0  0  0  0  0  0  0  0  0  0  0  0  # atno 5359 bound_to 3501
   10.3683    0.1698    2.9004 LP  0  0  0  0  0  0  0  0  0  0  0  0  # atno 5412 bound_to 3769
    8.9845    0.8175    3.4768 LP  0  0  0  0  0  0  0  0  0  0  0  0  # atno 5413 bound_to 3769
   17.0756    2.8963    0.5682 LP  0  0  0  0  0  0  0  0  0  0  0  0  # atno 5416 bound_to 3056
   18.1210    2.3849   -0.5773 LP  0  0  0  0  0  0  0  0  0  0  0  0  # atno 5417 bound_to 3056
   23.4388    9.8509  -10.1508 LP  0  0  0  0  0  0  0  0  0  0  0  0  # atno 5426 bound_to 5047
   21.9487    9.8595   -9.4829 LP  0  0  0  0  0  0  0  0  0  0  0  0  # atno 5427 bound_to 5047
   20.7672   11.4304   -6.0991 LP  0  0  0  0  0  0  0  0  0  0  0  0  # atno 5430 bound_to 544 
   19.3359   12.0601   -5.6286 LP  0  0  0  0  0  0  0  0  0  0  0  0  # atno 5431 bound_to 544 
   26.7792    5.2818  -12.3806 LP  0  0  0  0  0  0  0  0  0  0  0  0  # atno 5436 bound_to 1855
   26.1117    4.2664  -11.2898 LP  0  0  0  0  0  0  0  0  0  0  0  0  # atno 5437 bound_to 1855
   20.9190   -5.5414   -3.8149 LP  0  0  0  0  0  0  0  0  0  0  0  0  # atno 5458 bound_to 3104
   21.9992   -4.3480   -3.5401 LP  0  0  0  0  0  0  0  0  0  0  0  0  # atno 5459 bound_to 3104
   22.4169    8.5708    3.5021 LP  0  0  0  0  0  0  0  0  0  0  0  0  # atno 5468 bound_to 564 
   21.7585    9.8010    4.3505 LP  0  0  0  0  0  0  0  0  0  0  0  0  # atno 5469 bound_to 564 

> <Gold.Score>
     Fitness  S(hb_ext) S(vdw_ext)  S(hb_int)    S(int)      intcor
     24.47       0.27      19.15       0.00      -2.13      -0.76

> <Gold.Goldscore.Fitness>
24.4698

> <Gold.Goldscore.Internal.Vdw>
-2.5230

> <Gold.Goldscore.Internal.Torsion>
-0.3742

> <Gold.Goldscore.External.Vdw>
19.1482

> <Gold.Goldscore.Internal.HBond>
0.0000

> <Gold.Goldscore.External.HBond>
0.2734

> <Gold.Goldscore.Internal.Correction>
-0.7650

> <Gold.Goldscore.Hbonds>
donor molecule, donor type, donor heavy atom, donor atom, acceptor molecule, acceptor atom, score
      P1  H  1920  1930       L1     9  0.05

> <Gold.Goldscore.Internal.Vdw.Weighted>
-2.5230

> <Gold.Goldscore.Internal.Torsion.Weighted>
-0.3742

> <Gold.Goldscore.External.Vdw.Weighted>
26.3287

> <Gold.Goldscore.Internal.HBond.Weighted>
0.0000

> <Gold.Goldscore.External.HBond.Weighted>
0.2734

> <Gold.Goldscore.Internal.Correction.Weighted>
-0.7650

> <Gold.Rescore>
     Score     S(PLP)   S(hbond)     S(cho)   S(metal)  DE(clash)   DE(tors)     intcor
     25.07     -25.87       0.41       0.00       0.00       0.03       1.00       ----

> <Gold.PLP.Fitness>
25.0656

> <Gold.PLP.PLP>
-25.8678

> <Gold.PLP.part.hbond>
-1.4012

> <Gold.PLP.part.metal>
0.0000

> <Gold.PLP.part.buried>
-6.7297

> <Gold.PLP.part.nonpolar>
-18.7983

> <Gold.PLP.part.repulsive>
0.2728

> <Gold.PLP.ligand.clash>
0.0340

> <Gold.PLP.ligand.torsion>
0.9983

> <Gold.PLP.Chemscore.Hbond>
0.4095

> <Gold.PLP.Chemscore.CHOScore>
0.0000

> <Gold.PLP.Chemscore.Metal>
0.0000

> <Gold.Chemscore.Hbonds>
donor molecule, donor type, donor heavy atom, donor atom, acceptor molecule, acceptor atom, score
      P1  H  1920  1930       L1     9  0.58
      P1  H  1922  1932       L1     9  0.05

> <Gold.PLP.Chemscore.Internal.Correction>
   9.000000E+99

