#       Name:                CT1002167954
#       Creating user name   hitesit
#       Creation time:       Sun Apr 16 20:16:52 2023


#       File generated by GOLD software.
#

@<TRIPOS>MOLECULE
CT1002167954|ligand_prepared|mol2|1|dock10
    29    30     1
SMALL
NO_CHARGES


@<TRIPOS>ATOM
      1 C1          14.6614  -1.7477  -8.5768 C.3            1 RES1               0.0000
      2 C2          15.6311  -1.4704  -7.4099 C.ar           1 RES1               0.0000
      3 C3          15.3583  -1.2512  -9.8402 C.2            1 RES1               0.0000
      4 C4          14.3948  -3.2488  -8.5624 C.2            1 RES1               0.0000
      5 C5          13.3031  -1.0200  -8.4469 C.3            1 RES1               0.0000
      6 C6          15.5174  -0.3065  -6.6555 C.ar           1 RES1               0.0000
      7 C7          16.6407  -2.3687  -7.0748 C.ar           1 RES1               0.0000
      8 N8          15.8581  -2.1882 -10.6959 N.am           1 RES1               0.0000
      9 O9          15.5021  -0.0553 -10.0627 O.2            1 RES1               0.0000
     10 N10         14.8397  -3.9902  -9.6256 N.am           1 RES1               0.0000
     11 O11         13.8182  -3.7988  -7.6322 O.2            1 RES1               0.0000
     12 C12         12.2319  -1.5484  -9.3878 C.3            1 RES1               0.0000
     13 C13         16.3799  -0.0512  -5.6023 C.ar           1 RES1               0.0000
     14 C14         17.5024  -2.1113  -6.0214 C.ar           1 RES1               0.0000
     15 C15         15.5862  -3.5326 -10.6770 C.2            1 RES1               0.0000
     16 C16         17.3726  -0.9535  -5.2842 C.ar           1 RES1               0.0000
     17 O17         15.9958  -4.2714 -11.5679 O.2            1 RES1               0.0000
     18 H18         12.9465  -1.1197  -7.4143 H              1 RES1               0.0000
     19 H19         13.4539   0.0479  -8.6478 H              1 RES1               0.0000
     20 H20         14.7439   0.4163  -6.8925 H              1 RES1               0.0000
     21 H21         16.7623  -3.2856  -7.6416 H              1 RES1               0.0000
     22 H22         16.4927  -1.8589 -11.4164 H              1 RES1               0.0000
     23 H23         14.5912  -4.9743  -9.6340 H              1 RES1               0.0000
     24 H24         11.2995  -1.0035  -9.2557 H              1 RES1               0.0000
     25 H25         12.5427  -1.4416 -10.4250 H              1 RES1               0.0000
     26 H26         12.0383  -2.6023  -9.1988 H              1 RES1               0.0000
     27 H27         16.2744   0.8621  -5.0261 H              1 RES1               0.0000
     28 H28         18.2826  -2.8239  -5.7750 H              1 RES1               0.0000
     29 H29         18.0479  -0.7534  -4.4589 H              1 RES1               0.0000
@<TRIPOS>BOND
    1    1    2 1     
    2    1    3 1     
    3    1    4 1     
    4    1    5 1     
    5    2    6 ar    
    6    2    7 ar    
    7    3    8 1     
    8    3    9 2     
    9    4   10 1     
   10    4   11 2     
   11    5   12 1     
   12    5   18 1     
   13    5   19 1     
   14    6   13 ar    
   15    6   20 1     
   16    7   14 ar    
   17    7   21 1     
   18    8   15 1     
   19    8   22 1     
   20   10   15 1     
   21   10   23 1     
   22   12   24 1     
   23   12   25 1     
   24   12   26 1     
   25   13   16 ar    
   26   13   27 1     
   27   14   16 ar    
   28   14   28 1     
   29   15   17 2     
   30   16   29 1     
@<TRIPOS>SUBSTRUCTURE
      1 RES1           1
@<TRIPOS>SET
DONOR_HYDROGENS      STATIC     ATOMS    <user>   **** ""
2 22 23
ATOM$RED        STATIC     ATOMS    COLORGROUP SYSTEM
2 22 23
@<TRIPOS>COMMENT
> <Gold.Version>
2022.3.0

> <Gold.Id.Protein>
unknown|3nx8_clean|pdb

> <Gold.Protein.RotatedTorsions>
[ 3590 3581 3580 3578 ] final  -77.35 input   60.00 | X-H torsion
[ 3510 3501 3500 3498 ] final  122.80 input   59.99 | X-H torsion
[ 3778 3769 3768 3766 ] final  -28.66 input   60.02 | X-H torsion
[ 2535 2524 2523 2522 ] final  -70.04 input   60.02 | X-H torsion
[ 3063 3056 3054 3051 ] final -159.12 input   59.97 | X-H torsion
[ 5056 5047 5046 5044 ] final  -80.83 input   59.99 | X-H torsion
[  550  544  542  539 ] final -137.76 input   60.01 | X-H torsion
[ 1860 1855 1854 1851 ] final  -86.88 input   60.02 | X-H torsion
[ 3111 3104 3103 3101 ] final    1.67 input   60.01 | X-H torsion
[  567  564  563  560 ] final  168.38 input   60.03 | X-H torsion

> <Gold.Protein.ActiveResidues>
 LEU49   GLY50   THR51   GLY52   SER53   PHE54   VAL57   LEU82   GLN84   HIS87  
 GLU127  MET128  PHE129  SER130  LEU132  ARG133  ARG134  ILE135  GLY136  ARG137 
 ARG165  ASP166  LEU167  LYS168  PRO169  GLU170  ASN171  LEU172  LEU173  THR183 
 ASP184  GLY186  PHE187  TPO197  LEU198  CYS199  GLY200  THR201  PRO202  GLU203 
 TYR204  LEU205  ILE209  ILE210  VAL226  LEU227  TYR229  GLU230  ALA233  GLY234 
 TYR235  PRO236  PRO237  PHE238  PHE239  ALA240  ASP241  GLN242  PRO243  ILE244 
 GLN245  ILE246  TYR247  ARG256  PHE257  PRO258  SER259  PHE327  ASP328  TYR330 

> <Gold.Protein.RotatedAtoms>
   19.7315   12.1350   -6.0537 H   0  0  0  0  0  0  0  0  0  0  0  0  # atno 550  bound_to 544 
   21.9915    9.1659    4.4241 H   0  0  0  0  0  0  0  0  0  0  0  0  # atno 567  bound_to 564 
   25.3881    5.0471  -12.6948 H   0  0  0  0  0  0  0  0  0  0  0  0  # atno 1860 bound_to 1855
   18.7125    3.8999   -1.9605 H   0  0  0  0  0  0  0  0  0  0  0  0  # atno 2535 bound_to 2524
   18.7956    3.5299   -0.3470 H   0  0  0  0  0  0  0  0  0  0  0  0  # atno 2536 bound_to 2524
   19.3764    4.9826   -0.8954 H   0  0  0  0  0  0  0  0  0  0  0  0  # atno 2537 bound_to 2524
   18.1559    2.3607   -0.5579 H   0  0  0  0  0  0  0  0  0  0  0  0  # atno 3063 bound_to 3056
   20.5926   -4.0916   -4.3858 H   0  0  0  0  0  0  0  0  0  0  0  0  # atno 3111 bound_to 3104
   16.3020  -15.1058   -7.7546 H   0  0  0  0  0  0  0  0  0  0  0  0  # atno 3510 bound_to 3501
   16.6616  -14.1831  -11.7077 H   0  0  0  0  0  0  0  0  0  0  0  0  # atno 3590 bound_to 3581
   10.3595    0.1715    2.9140 H   0  0  0  0  0  0  0  0  0  0  0  0  # atno 3778 bound_to 3769
   22.6520    9.7656  -10.2841 H   0  0  0  0  0  0  0  0  0  0  0  0  # atno 5056 bound_to 5047
   15.9798  -13.7659  -13.1249 LP  0  0  0  0  0  0  0  0  0  0  0  0  # atno 5350 bound_to 3581
   15.0496  -13.9817  -11.8003 LP  0  0  0  0  0  0  0  0  0  0  0  0  # atno 5351 bound_to 3581
   15.8179  -13.5875   -8.0853 LP  0  0  0  0  0  0  0  0  0  0  0  0  # atno 5358 bound_to 3501
   15.2441  -14.3614   -6.7668 LP  0  0  0  0  0  0  0  0  0  0  0  0  # atno 5359 bound_to 3501
    8.9741    0.8219    3.4674 LP  0  0  0  0  0  0  0  0  0  0  0  0  # atno 5412 bound_to 3769
    9.2141    0.6497    1.8614 LP  0  0  0  0  0  0  0  0  0  0  0  0  # atno 5413 bound_to 3769
   18.3952    2.0992    1.0303 LP  0  0  0  0  0  0  0  0  0  0  0  0  # atno 5416 bound_to 3056
   17.0680    2.9042    0.5234 LP  0  0  0  0  0  0  0  0  0  0  0  0  # atno 5417 bound_to 3056
   22.2104   10.0220   -8.7390 LP  0  0  0  0  0  0  0  0  0  0  0  0  # atno 5426 bound_to 5047
   23.7879   10.0677   -9.1587 LP  0  0  0  0  0  0  0  0  0  0  0  0  # atno 5427 bound_to 5047
   19.5341   11.1835   -4.7483 LP  0  0  0  0  0  0  0  0  0  0  0  0  # atno 5430 bound_to 544 
   20.8598   11.0208   -5.6878 LP  0  0  0  0  0  0  0  0  0  0  0  0  # atno 5431 bound_to 544 
   26.9104    5.1406  -12.1271 LP  0  0  0  0  0  0  0  0  0  0  0  0  # atno 5436 bound_to 1855
   25.8051    4.2157  -11.3594 LP  0  0  0  0  0  0  0  0  0  0  0  0  # atno 5437 bound_to 1855
   20.9777   -5.5522   -3.7795 LP  0  0  0  0  0  0  0  0  0  0  0  0  # atno 5458 bound_to 3104
   21.9849   -4.2849   -3.5651 LP  0  0  0  0  0  0  0  0  0  0  0  0  # atno 5459 bound_to 3104
   21.7765   10.3072    3.2838 LP  0  0  0  0  0  0  0  0  0  0  0  0  # atno 5468 bound_to 564 
   22.4274    8.8635    2.8853 LP  0  0  0  0  0  0  0  0  0  0  0  0  # atno 5469 bound_to 564 

> <Gold.Score>
     Fitness  S(hb_ext) S(vdw_ext)  S(hb_int)    S(int)      intcor
     26.50       0.50      19.35       0.00      -0.61      -0.76

> <Gold.Goldscore.Fitness>
26.5008

> <Gold.Goldscore.Internal.Vdw>
-0.6859

> <Gold.Goldscore.Internal.Torsion>
-0.6813

> <Gold.Goldscore.External.Vdw>
19.3541

> <Gold.Goldscore.Internal.HBond>
0.0000

> <Gold.Goldscore.External.HBond>
0.4975

> <Gold.Goldscore.Internal.Correction>
-0.7585

> <Gold.Goldscore.Hbonds>
donor molecule, donor type, donor heavy atom, donor atom, acceptor molecule, acceptor atom, score
      P1  H  1922  1932       L1     9  0.08

> <Gold.Goldscore.Internal.Vdw.Weighted>
-0.6859

> <Gold.Goldscore.Internal.Torsion.Weighted>
-0.6813

> <Gold.Goldscore.External.Vdw.Weighted>
26.6119

> <Gold.Goldscore.Internal.HBond.Weighted>
0.0000

> <Gold.Goldscore.External.HBond.Weighted>
0.4975

> <Gold.Goldscore.Internal.Correction.Weighted>
-0.7585

> <Gold.Rescore>
     Score     S(PLP)   S(hbond)     S(cho)   S(metal)  DE(clash)   DE(tors)     intcor
     24.80     -25.88       0.42       0.00       0.00       0.00       1.17       ----

> <Gold.PLP.Fitness>
24.8033

> <Gold.PLP.PLP>
-25.8791

> <Gold.PLP.part.hbond>
-1.3512

> <Gold.PLP.part.metal>
0.0000

> <Gold.PLP.part.buried>
-6.7321

> <Gold.PLP.part.nonpolar>
-19.0945

> <Gold.PLP.part.repulsive>
0.3792

> <Gold.PLP.ligand.clash>
0.0000

> <Gold.PLP.ligand.torsion>
1.1697

> <Gold.PLP.Chemscore.Hbond>
0.4212

> <Gold.PLP.Chemscore.CHOScore>
0.0000

> <Gold.PLP.Chemscore.Metal>
0.0000

> <Gold.PLP.Chemscore.Internal.Correction>
   9.000000E+99

