#       Name:                CT1002167954
#       Creating user name   hitesit
#       Creation time:       Sun Apr 16 20:16:43 2023


#       File generated by GOLD software.
#

@<TRIPOS>MOLECULE
CT1002167954|ligand_prepared|mol2|1|dock2
    29    30     1
SMALL
NO_CHARGES


@<TRIPOS>ATOM
      1 C1          15.0749  -0.6754  -8.1436 C.3            1 RES1               0.0000
      2 C2          15.8804  -0.7858  -6.8330 C.ar           1 RES1               0.0000
      3 C3          13.6770  -0.2078  -7.7493 C.2            1 RES1               0.0000
      4 C4          15.8331   0.3076  -9.0288 C.2            1 RES1               0.0000
      5 C5          14.9474  -2.0108  -8.9130 C.3            1 RES1               0.0000
      6 C6          16.3890   0.3531  -6.2158 C.ar           1 RES1               0.0000
      7 C7          16.1202  -2.0171  -6.2288 C.ar           1 RES1               0.0000
      8 N8          13.3421   1.0852  -8.0249 N.am           1 RES1               0.0000
      9 O9          12.8945  -0.9507  -7.1697 O.2            1 RES1               0.0000
     10 N10         15.2273   1.4992  -9.3304 N.am           1 RES1               0.0000
     11 O11         16.9565   0.0681  -9.4541 O.2            1 RES1               0.0000
     12 C12         14.3984  -1.8563 -10.3226 C.3            1 RES1               0.0000
     13 C13         17.1089   0.2647  -5.0358 C.ar           1 RES1               0.0000
     14 C14         16.8405  -2.1033  -5.0489 C.ar           1 RES1               0.0000
     15 C15         14.0290   1.9454  -8.8434 C.2            1 RES1               0.0000
     16 C16         17.3347  -0.9633  -4.4514 C.ar           1 RES1               0.0000
     17 O17         13.5751   3.0526  -9.1176 O.2            1 RES1               0.0000
     18 H18         15.9364  -2.4819  -8.9689 H              1 RES1               0.0000
     19 H19         14.2878  -2.6817  -8.3488 H              1 RES1               0.0000
     20 H20         16.2235   1.3280  -6.6623 H              1 RES1               0.0000
     21 H21         15.7419  -2.9273  -6.6817 H              1 RES1               0.0000
     22 H22         12.5034   1.4459  -7.5814 H              1 RES1               0.0000
     23 H23         15.7148   2.1101  -9.9781 H              1 RES1               0.0000
     24 H24         14.3293  -2.8226 -10.8176 H              1 RES1               0.0000
     25 H25         13.4047  -1.4136 -10.3032 H              1 RES1               0.0000
     26 H26         15.0436  -1.2150 -10.9196 H              1 RES1               0.0000
     27 H27         17.4968   1.1647  -4.5703 H              1 RES1               0.0000
     28 H28         17.0164  -3.0719  -4.5928 H              1 RES1               0.0000
     29 H29         17.8983  -1.0323  -3.5268 H              1 RES1               0.0000
@<TRIPOS>BOND
    1    1    2 1     
    2    1    3 1     
    3    1    4 1     
    4    1    5 1     
    5    2    6 ar    
    6    2    7 ar    
    7    3    8 1     
    8    3    9 2     
    9    4   10 1     
   10    4   11 2     
   11    5   12 1     
   12    5   18 1     
   13    5   19 1     
   14    6   13 ar    
   15    6   20 1     
   16    7   14 ar    
   17    7   21 1     
   18    8   15 1     
   19    8   22 1     
   20   10   15 1     
   21   10   23 1     
   22   12   24 1     
   23   12   25 1     
   24   12   26 1     
   25   13   16 ar    
   26   13   27 1     
   27   14   16 ar    
   28   14   28 1     
   29   15   17 2     
   30   16   29 1     
@<TRIPOS>SUBSTRUCTURE
      1 RES1           1
@<TRIPOS>SET
DONOR_HYDROGENS      STATIC     ATOMS    <user>   **** ""
2 22 23
ATOM$RED        STATIC     ATOMS    COLORGROUP SYSTEM
2 22 23
@<TRIPOS>COMMENT
> <Gold.Version>
2022.3.0

> <Gold.Id.Protein>
unknown|3nx8_clean|pdb

> <Gold.Protein.RotatedTorsions>
[ 3590 3581 3580 3578 ] final  -88.58 input   60.00 | X-H torsion
[ 3510 3501 3500 3498 ] final  128.10 input   59.99 | X-H torsion
[ 3778 3769 3768 3766 ] final  108.78 input   60.02 | X-H torsion
[ 2535 2524 2523 2522 ] final  169.51 input   60.02 | X-H torsion
[ 3063 3056 3054 3051 ] final -147.41 input   59.97 | X-H torsion
[ 5056 5047 5046 5044 ] final  -99.12 input   59.99 | X-H torsion
[  550  544  542  539 ] final   16.18 input   60.01 | X-H torsion
[ 1860 1855 1854 1851 ] final   45.72 input   60.02 | X-H torsion
[ 3111 3104 3103 3101 ] final  -18.92 input   60.01 | X-H torsion
[  567  564  563  560 ] final   63.13 input   60.03 | X-H torsion

> <Gold.Protein.ActiveResidues>
 LEU49   GLY50   THR51   GLY52   SER53   PHE54   VAL57   LEU82   GLN84   HIS87  
 GLU127  MET128  PHE129  SER130  LEU132  ARG133  ARG134  ILE135  GLY136  ARG137 
 ARG165  ASP166  LEU167  LYS168  PRO169  GLU170  ASN171  LEU172  LEU173  THR183 
 ASP184  GLY186  PHE187  TPO197  LEU198  CYS199  GLY200  THR201  PRO202  GLU203 
 TYR204  LEU205  ILE209  ILE210  VAL226  LEU227  TYR229  GLU230  ALA233  GLY234 
 TYR235  PRO236  PRO237  PHE238  PHE239  ALA240  ASP241  GLN242  PRO243  ILE244 
 GLN245  ILE246  TYR247  ARG256  PHE257  PRO258  SER259  PHE327  ASP328  TYR330 

> <Gold.Protein.RotatedAtoms>
   20.6541   10.7916   -5.2340 H   0  0  0  0  0  0  0  0  0  0  0  0  # atno 550  bound_to 544 
   21.7224   10.3165    3.5188 H   0  0  0  0  0  0  0  0  0  0  0  0  # atno 567  bound_to 564 
   26.0037    4.2429  -11.3110 H   0  0  0  0  0  0  0  0  0  0  0  0  # atno 1860 bound_to 1855
   19.3768    4.9814   -0.8879 H   0  0  0  0  0  0  0  0  0  0  0  0  # atno 2535 bound_to 2524
   18.7157    3.9069   -1.9631 H   0  0  0  0  0  0  0  0  0  0  0  0  # atno 2536 bound_to 2524
   18.7928    3.5258   -0.3514 H   0  0  0  0  0  0  0  0  0  0  0  0  # atno 2537 bound_to 2524
   17.9955    2.4563   -0.5984 H   0  0  0  0  0  0  0  0  0  0  0  0  # atno 3063 bound_to 3056
   20.4271   -4.3823   -4.3987 H   0  0  0  0  0  0  0  0  0  0  0  0  # atno 3111 bound_to 3104
   16.2694  -15.1436   -7.6838 H   0  0  0  0  0  0  0  0  0  0  0  0  # atno 3510 bound_to 3501
   16.7509  -14.1551  -11.8652 H   0  0  0  0  0  0  0  0  0  0  0  0  # atno 3590 bound_to 3581
    8.9896    0.7538    2.0028 H   0  0  0  0  0  0  0  0  0  0  0  0  # atno 3778 bound_to 3769
   22.3798    9.7669  -10.1638 H   0  0  0  0  0  0  0  0  0  0  0  0  # atno 5056 bound_to 5047
   15.7964  -13.7469  -13.1182 LP  0  0  0  0  0  0  0  0  0  0  0  0  # atno 5350 bound_to 3581
   15.1432  -14.0289  -11.6483 LP  0  0  0  0  0  0  0  0  0  0  0  0  # atno 5351 bound_to 3581
   15.8743  -13.6308   -8.1358 LP  0  0  0  0  0  0  0  0  0  0  0  0  # atno 5358 bound_to 3501
   15.2206  -14.2800   -6.7875 LP  0  0  0  0  0  0  0  0  0  0  0  0  # atno 5359 bound_to 3501
   10.3688    0.1589    2.6295 LP  0  0  0  0  0  0  0  0  0  0  0  0  # atno 5412 bound_to 3769
    9.1984    0.7266    3.6166 LP  0  0  0  0  0  0  0  0  0  0  0  0  # atno 5413 bound_to 3769
   18.5122    2.0430    0.8883 LP  0  0  0  0  0  0  0  0  0  0  0  0  # atno 5416 bound_to 3056
   17.1124    2.8641    0.7062 LP  0  0  0  0  0  0  0  0  0  0  0  0  # atno 5417 bound_to 3056
   22.4505   10.0739   -8.5672 LP  0  0  0  0  0  0  0  0  0  0  0  0  # atno 5426 bound_to 5047
   23.8219   10.0146   -9.4517 LP  0  0  0  0  0  0  0  0  0  0  0  0  # atno 5427 bound_to 5047
   20.2090   11.9685   -6.2660 LP  0  0  0  0  0  0  0  0  0  0  0  0  # atno 5430 bound_to 544 
   19.2557   11.5890   -4.9957 LP  0  0  0  0  0  0  0  0  0  0  0  0  # atno 5431 bound_to 544 
   25.2595    4.9283  -12.5857 LP  0  0  0  0  0  0  0  0  0  0  0  0  # atno 5436 bound_to 1855
   26.8362    5.2376  -12.2940 LP  0  0  0  0  0  0  0  0  0  0  0  0  # atno 5437 bound_to 1855
   21.2741   -5.5340   -3.6203 LP  0  0  0  0  0  0  0  0  0  0  0  0  # atno 5458 bound_to 3104
   21.8550   -4.0106   -3.7113 LP  0  0  0  0  0  0  0  0  0  0  0  0  # atno 5459 bound_to 3104
   22.3836    9.0505    2.7382 LP  0  0  0  0  0  0  0  0  0  0  0  0  # atno 5468 bound_to 564 
   22.0911    8.9619    4.3423 LP  0  0  0  0  0  0  0  0  0  0  0  0  # atno 5469 bound_to 564 

> <Gold.Score>
     Fitness  S(hb_ext) S(vdw_ext)  S(hb_int)    S(int)      intcor
     26.47       6.00      14.98       0.00      -0.13      -0.77

> <Gold.Goldscore.Fitness>
26.4684

> <Gold.Goldscore.Internal.Vdw>
-0.3279

> <Gold.Goldscore.Internal.Torsion>
-0.5663

> <Gold.Goldscore.External.Vdw>
14.9774

> <Gold.Goldscore.Internal.HBond>
0.0000

> <Gold.Goldscore.External.HBond>
6.0000

> <Gold.Goldscore.Internal.Correction>
-0.7686

> <Gold.Goldscore.Hbonds>
donor molecule, donor type, donor heavy atom, donor atom, acceptor molecule, acceptor atom, score
      P1  H  1922  1932       L1    11  1.00

> <Gold.Goldscore.Internal.Vdw.Weighted>
-0.3279

> <Gold.Goldscore.Internal.Torsion.Weighted>
-0.5663

> <Gold.Goldscore.External.Vdw.Weighted>
20.5939

> <Gold.Goldscore.Internal.HBond.Weighted>
0.0000

> <Gold.Goldscore.External.HBond.Weighted>
6.0000

> <Gold.Goldscore.Internal.Correction.Weighted>
-0.7686

> <Gold.Rescore>
     Score     S(PLP)   S(hbond)     S(cho)   S(metal)  DE(clash)   DE(tors)     intcor
     25.15     -19.91       1.90       0.00       0.00       0.00       0.24       ----

> <Gold.PLP.Fitness>
25.1518

> <Gold.PLP.PLP>
-19.9101

> <Gold.PLP.part.hbond>
-2.0000

> <Gold.PLP.part.metal>
0.0000

> <Gold.PLP.part.buried>
-3.4764

> <Gold.PLP.part.nonpolar>
-16.3139

> <Gold.PLP.part.repulsive>
0.5075

> <Gold.PLP.ligand.clash>
0.0000

> <Gold.PLP.ligand.torsion>
0.2351

> <Gold.PLP.Chemscore.Hbond>
1.9040

> <Gold.PLP.Chemscore.CHOScore>
0.0000

> <Gold.PLP.Chemscore.Metal>
0.0000

> <Gold.Chemscore.Hbonds>
donor molecule, donor type, donor heavy atom, donor atom, acceptor molecule, acceptor atom, score
      P1  H  1922  1932       L1    11  1.00

> <Gold.PLP.Chemscore.Internal.Correction>
   9.000000E+99

