#       Name:                CT1002167954
#       Creating user name   hitesit
#       Creation time:       Sun Apr 16 20:16:48 2023


#       File generated by GOLD software.
#

@<TRIPOS>MOLECULE
CT1002167954|ligand_prepared|mol2|1|dock7
    29    30     1
SMALL
NO_CHARGES


@<TRIPOS>ATOM
      1 C1          14.8531  -1.8740  -8.4002 C.3            1 RES1               0.0000
      2 C2          14.7928  -3.0187  -9.4321 C.ar           1 RES1               0.0000
      3 C3          15.4039  -0.6586  -9.1404 C.2            1 RES1               0.0000
      4 C4          13.4315  -1.6937  -7.8795 C.2            1 RES1               0.0000
      5 C5          15.7708  -2.1703  -7.1912 C.3            1 RES1               0.0000
      6 C6          15.9611  -3.6083  -9.9055 C.ar           1 RES1               0.0000
      7 C7          13.5783  -3.4969  -9.9169 C.ar           1 RES1               0.0000
      8 N8          14.5306   0.3421  -9.4496 N.am           1 RES1               0.0000
      9 O9          16.5784  -0.5970  -9.4824 O.2            1 RES1               0.0000
     10 N10         12.7882  -0.5175  -8.1632 N.am           1 RES1               0.0000
     11 O11         12.8567  -2.5661  -7.2402 O.2            1 RES1               0.0000
     12 C12         15.9587  -0.9840  -6.2588 C.3            1 RES1               0.0000
     13 C13         15.9169  -4.6405 -10.8280 C.ar           1 RES1               0.0000
     14 C14         13.5364  -4.5290 -10.8396 C.ar           1 RES1               0.0000
     15 C15         13.2620   0.4961  -8.9508 C.2            1 RES1               0.0000
     16 C16         14.7048  -5.1018 -11.2953 C.ar           1 RES1               0.0000
     17 O17         12.6021   1.4997  -9.2045 O.2            1 RES1               0.0000
     18 H18         15.3443  -3.0042  -6.6202 H              1 RES1               0.0000
     19 H19         16.7534  -2.4863  -7.5629 H              1 RES1               0.0000
     20 H20         16.9244  -3.2569  -9.5510 H              1 RES1               0.0000
     21 H21         12.6465  -3.0606  -9.5733 H              1 RES1               0.0000
     22 H22         14.8501   1.0405 -10.1132 H              1 RES1               0.0000
     23 H23         11.8711  -0.3853  -7.7487 H              1 RES1               0.0000
     24 H24         16.6106  -1.2458  -5.4281 H              1 RES1               0.0000
     25 H25         16.4045  -0.1443  -6.7878 H              1 RES1               0.0000
     26 H26         15.0037  -0.6591  -5.8508 H              1 RES1               0.0000
     27 H27         16.8393  -5.0870 -11.1845 H              1 RES1               0.0000
     28 H28         12.5802  -4.8885 -11.2051 H              1 RES1               0.0000
     29 H29         14.6704  -5.9106 -12.0177 H              1 RES1               0.0000
@<TRIPOS>BOND
    1    1    2 1     
    2    1    3 1     
    3    1    4 1     
    4    1    5 1     
    5    2    6 ar    
    6    2    7 ar    
    7    3    8 1     
    8    3    9 2     
    9    4   10 1     
   10    4   11 2     
   11    5   12 1     
   12    5   18 1     
   13    5   19 1     
   14    6   13 ar    
   15    6   20 1     
   16    7   14 ar    
   17    7   21 1     
   18    8   15 1     
   19    8   22 1     
   20   10   15 1     
   21   10   23 1     
   22   12   24 1     
   23   12   25 1     
   24   12   26 1     
   25   13   16 ar    
   26   13   27 1     
   27   14   16 ar    
   28   14   28 1     
   29   15   17 2     
   30   16   29 1     
@<TRIPOS>SUBSTRUCTURE
      1 RES1           1
@<TRIPOS>SET
DONOR_HYDROGENS      STATIC     ATOMS    <user>   **** ""
2 22 23
ATOM$RED        STATIC     ATOMS    COLORGROUP SYSTEM
2 22 23
@<TRIPOS>COMMENT
> <Gold.Version>
2022.3.0

> <Gold.Id.Protein>
unknown|3nx8_clean|pdb

> <Gold.Protein.RotatedTorsions>
[ 3590 3581 3580 3578 ] final   40.47 input   60.00 | X-H torsion
[ 3510 3501 3500 3498 ] final -179.06 input   59.99 | X-H torsion
[ 3778 3769 3768 3766 ] final  161.88 input   60.02 | X-H torsion
[ 2535 2524 2523 2522 ] final  -79.35 input   60.02 | X-H torsion
[ 3063 3056 3054 3051 ] final  129.62 input   59.97 | X-H torsion
[ 5056 5047 5046 5044 ] final   47.46 input   59.99 | X-H torsion
[  550  544  542  539 ] final  172.44 input   60.01 | X-H torsion
[ 1860 1855 1854 1851 ] final   40.85 input   60.02 | X-H torsion
[ 3111 3104 3103 3101 ] final  -41.10 input   60.01 | X-H torsion
[  567  564  563  560 ] final  -19.60 input   60.03 | X-H torsion

> <Gold.Protein.ActiveResidues>
 LEU49   GLY50   THR51   GLY52   SER53   PHE54   VAL57   LEU82   GLN84   HIS87  
 GLU127  MET128  PHE129  SER130  LEU132  ARG133  ARG134  ILE135  GLY136  ARG137 
 ARG165  ASP166  LEU167  LYS168  PRO169  GLU170  ASN171  LEU172  LEU173  THR183 
 ASP184  GLY186  PHE187  TPO197  LEU198  CYS199  GLY200  THR201  PRO202  GLU203 
 TYR204  LEU205  ILE209  ILE210  VAL226  LEU227  TYR229  GLU230  ALA233  GLY234 
 TYR235  PRO236  PRO237  PHE238  PHE239  ALA240  ASP241  GLN242  PRO243  ILE244 
 GLN245  ILE246  TYR247  ARG256  PHE257  PRO258  SER259  PHE327  ASP328  TYR330 

> <Gold.Protein.RotatedAtoms>
   19.2609   11.9630   -5.4450 H   0  0  0  0  0  0  0  0  0  0  0  0  # atno 550  bound_to 544 
   22.1868    9.6052    2.6183 H   0  0  0  0  0  0  0  0  0  0  0  0  # atno 567  bound_to 564 
   25.9271    4.2299  -11.3279 H   0  0  0  0  0  0  0  0  0  0  0  0  # atno 1860 bound_to 1855
   18.7700    4.0386   -2.0000 H   0  0  0  0  0  0  0  0  0  0  0  0  # atno 2535 bound_to 2524
   18.7358    3.4369   -0.4560 H   0  0  0  0  0  0  0  0  0  0  0  0  # atno 2536 bound_to 2524
   19.3787    4.9371   -0.7471 H   0  0  0  0  0  0  0  0  0  0  0  0  # atno 2537 bound_to 2524
   18.6844    1.9864    0.3199 H   0  0  0  0  0  0  0  0  0  0  0  0  # atno 3063 bound_to 3056
   20.3573   -4.7314   -4.3428 H   0  0  0  0  0  0  0  0  0  0  0  0  # atno 3111 bound_to 3104
   15.7809  -15.1271   -7.0085 H   0  0  0  0  0  0  0  0  0  0  0  0  # atno 3510 bound_to 3501
   15.0717  -13.9892  -11.7721 H   0  0  0  0  0  0  0  0  0  0  0  0  # atno 3590 bound_to 3581
    8.6636    0.9309    2.7533 H   0  0  0  0  0  0  0  0  0  0  0  0  # atno 3778 bound_to 3769
   23.7357   10.0898   -9.0350 H   0  0  0  0  0  0  0  0  0  0  0  0  # atno 5056 bound_to 5047
   16.6870  -14.1814  -11.7339 LP  0  0  0  0  0  0  0  0  0  0  0  0  # atno 5350 bound_to 3581
   15.9444  -13.7615  -13.1264 LP  0  0  0  0  0  0  0  0  0  0  0  0  # atno 5351 bound_to 3581
   16.3233  -14.3174   -8.3120 LP  0  0  0  0  0  0  0  0  0  0  0  0  # atno 5358 bound_to 3501
   15.2632  -13.6101   -7.2909 LP  0  0  0  0  0  0  0  0  0  0  0  0  # atno 5359 bound_to 3501
    9.9313    0.3286    1.9293 LP  0  0  0  0  0  0  0  0  0  0  0  0  # atno 5412 bound_to 3769
    9.9640    0.3787    3.5612 LP  0  0  0  0  0  0  0  0  0  0  0  0  # atno 5413 bound_to 3769
   17.4449    2.6373    1.1494 LP  0  0  0  0  0  0  0  0  0  0  0  0  # atno 5416 bound_to 3056
   17.4860    2.7431   -0.4797 LP  0  0  0  0  0  0  0  0  0  0  0  0  # atno 5417 bound_to 3056
   22.7845    9.7675  -10.3154 LP  0  0  0  0  0  0  0  0  0  0  0  0  # atno 5426 bound_to 5047
   22.1228    9.9958   -8.8400 LP  0  0  0  0  0  0  0  0  0  0  0  0  # atno 5427 bound_to 5047
   20.2127   10.7843   -4.8507 LP  0  0  0  0  0  0  0  0  0  0  0  0  # atno 5430 bound_to 544 
   20.6552   11.5933   -6.1984 LP  0  0  0  0  0  0  0  0  0  0  0  0  # atno 5431 bound_to 544 
   25.3031    4.9767  -12.6323 LP  0  0  0  0  0  0  0  0  0  0  0  0  # atno 5436 bound_to 1855
   26.8697    5.2023  -12.2303 LP  0  0  0  0  0  0  0  0  0  0  0  0  # atno 5437 bound_to 1855
   21.5796   -5.3871   -3.4910 LP  0  0  0  0  0  0  0  0  0  0  0  0  # atno 5458 bound_to 3104
   21.6199   -3.8059   -3.8969 LP  0  0  0  0  0  0  0  0  0  0  0  0  # atno 5459 bound_to 3104
   22.3172    8.6157    3.9040 LP  0  0  0  0  0  0  0  0  0  0  0  0  # atno 5468 bound_to 564 
   21.6901   10.1128    4.0828 LP  0  0  0  0  0  0  0  0  0  0  0  0  # atno 5469 bound_to 564 

> <Gold.Score>
     Fitness  S(hb_ext) S(vdw_ext)  S(hb_int)    S(int)      intcor
     26.77       5.84      17.21       0.00      -2.73      -0.76

> <Gold.Goldscore.Fitness>
26.7733

> <Gold.Goldscore.Internal.Vdw>
-3.0475

> <Gold.Goldscore.Internal.Torsion>
-0.4427

> <Gold.Goldscore.External.Vdw>
17.2078

> <Gold.Goldscore.Internal.HBond>
0.0000

> <Gold.Goldscore.External.HBond>
5.8442

> <Gold.Goldscore.Internal.Correction>
-0.7585

> <Gold.Goldscore.Hbonds>
donor molecule, donor type, donor heavy atom, donor atom, acceptor molecule, acceptor atom, score
      P1  H  1922  1932       L1     9  0.97

> <Gold.Goldscore.Internal.Vdw.Weighted>
-3.0475

> <Gold.Goldscore.Internal.Torsion.Weighted>
-0.4427

> <Gold.Goldscore.External.Vdw.Weighted>
23.6607

> <Gold.Goldscore.Internal.HBond.Weighted>
0.0000

> <Gold.Goldscore.External.HBond.Weighted>
5.8442

> <Gold.Goldscore.Internal.Correction.Weighted>
-0.7585

> <Gold.Rescore>
     Score     S(PLP)   S(hbond)     S(cho)   S(metal)  DE(clash)   DE(tors)     intcor
     28.47     -26.26       1.27       0.00       0.00       1.05       0.28       ----

> <Gold.PLP.Fitness>
28.4682

> <Gold.PLP.PLP>
-26.2581

> <Gold.PLP.part.hbond>
-2.0000

> <Gold.PLP.part.metal>
0.0000

> <Gold.PLP.part.buried>
-1.5888

> <Gold.PLP.part.nonpolar>
-23.8079

> <Gold.PLP.part.repulsive>
0.1125

> <Gold.PLP.ligand.clash>
1.0541

> <Gold.PLP.ligand.torsion>
0.2792

> <Gold.PLP.Chemscore.Hbond>
1.2742

> <Gold.PLP.Chemscore.CHOScore>
0.0000

> <Gold.PLP.Chemscore.Metal>
0.0000

> <Gold.Chemscore.Hbonds>
donor molecule, donor type, donor heavy atom, donor atom, acceptor molecule, acceptor atom, score
      P1  H  1922  1932       L1     9  1.00

> <Gold.PLP.Chemscore.Internal.Correction>
   9.000000E+99

