#       Name:                CT1002167954
#       Creating user name   hitesit
#       Creation time:       Sun Apr 16 20:16:47 2023


#       File generated by GOLD software.
#

@<TRIPOS>MOLECULE
CT1002167954|ligand_prepared|mol2|1|dock6
    29    30     1
SMALL
NO_CHARGES


@<TRIPOS>ATOM
      1 C1          15.2567  -0.2731  -7.2348 C.3            1 RES1               0.0000
      2 C2          14.2088  -1.2680  -7.7742 C.ar           1 RES1               0.0000
      3 C3          15.9569   0.3156  -8.4560 C.2            1 RES1               0.0000
      4 C4          14.4872   0.7493  -6.4058 C.2            1 RES1               0.0000
      5 C5          16.3233  -0.9225  -6.3225 C.3            1 RES1               0.0000
      6 C6          12.9179  -0.8438  -8.0748 C.ar           1 RES1               0.0000
      7 C7          14.5184  -2.6100  -7.9785 C.ar           1 RES1               0.0000
      8 N8          15.6534   1.5998  -8.8004 N.am           1 RES1               0.0000
      9 O9          16.7338  -0.3498  -9.1297 O.2            1 RES1               0.0000
     10 N10         14.4554   2.0446  -6.8518 N.am           1 RES1               0.0000
     11 O11         13.8942   0.4415  -5.3792 O.2            1 RES1               0.0000
     12 C12         17.1656   0.0824  -5.5527 C.3            1 RES1               0.0000
     13 C13         11.9715  -1.7285  -8.5647 C.ar           1 RES1               0.0000
     14 C14         13.5704  -3.4931  -8.4683 C.ar           1 RES1               0.0000
     15 C15         14.9779   2.5100  -8.0277 C.2            1 RES1               0.0000
     16 C16         12.2972  -3.0535  -8.7623 C.ar           1 RES1               0.0000
     17 O17         14.8616   3.6784  -8.3861 O.2            1 RES1               0.0000
     18 H18         15.8201  -1.5837  -5.6063 H              1 RES1               0.0000
     19 H19         16.9872  -1.5402  -6.9399 H              1 RES1               0.0000
     20 H20         12.6425   0.1946  -7.9235 H              1 RES1               0.0000
     21 H21         15.5134  -2.9784  -7.7532 H              1 RES1               0.0000
     22 H22         15.9566   1.9123  -9.7173 H              1 RES1               0.0000
     23 H23         14.0003   2.7249  -6.2516 H              1 RES1               0.0000
     24 H24         17.8977  -0.4258  -4.9286 H              1 RES1               0.0000
     25 H25         17.7002   0.7405  -6.2346 H              1 RES1               0.0000
     26 H26         16.5400   0.6972  -4.9089 H              1 RES1               0.0000
     27 H27         10.9705  -1.3778  -8.7932 H              1 RES1               0.0000
     28 H28         13.8309  -4.5352  -8.6217 H              1 RES1               0.0000
     29 H29         11.5558  -3.7462  -9.1464 H              1 RES1               0.0000
@<TRIPOS>BOND
    1    1    2 1     
    2    1    3 1     
    3    1    4 1     
    4    1    5 1     
    5    2    6 ar    
    6    2    7 ar    
    7    3    8 1     
    8    3    9 2     
    9    4   10 1     
   10    4   11 2     
   11    5   12 1     
   12    5   18 1     
   13    5   19 1     
   14    6   13 ar    
   15    6   20 1     
   16    7   14 ar    
   17    7   21 1     
   18    8   15 1     
   19    8   22 1     
   20   10   15 1     
   21   10   23 1     
   22   12   24 1     
   23   12   25 1     
   24   12   26 1     
   25   13   16 ar    
   26   13   27 1     
   27   14   16 ar    
   28   14   28 1     
   29   15   17 2     
   30   16   29 1     
@<TRIPOS>SUBSTRUCTURE
      1 RES1           1
@<TRIPOS>SET
DONOR_HYDROGENS      STATIC     ATOMS    <user>   **** ""
2 22 23
ATOM$RED        STATIC     ATOMS    COLORGROUP SYSTEM
2 22 23
@<TRIPOS>COMMENT
> <Gold.Version>
2022.3.0

> <Gold.Id.Protein>
unknown|3nx8_clean|pdb

> <Gold.Protein.RotatedTorsions>
[ 3590 3581 3580 3578 ] final -101.89 input   60.00 | X-H torsion
[ 3510 3501 3500 3498 ] final -140.78 input   59.99 | X-H torsion
[ 3778 3769 3768 3766 ] final  146.21 input   60.02 | X-H torsion
[ 2535 2524 2523 2522 ] final  -27.21 input   60.02 | X-H torsion
[ 3063 3056 3054 3051 ] final  -21.97 input   59.97 | X-H torsion
[ 5056 5047 5046 5044 ] final -177.11 input   59.99 | X-H torsion
[  550  544  542  539 ] final  -57.87 input   60.01 | X-H torsion
[ 1860 1855 1854 1851 ] final  -98.34 input   60.02 | X-H torsion
[ 3111 3104 3103 3101 ] final  -68.23 input   60.01 | X-H torsion
[  567  564  563  560 ] final  -74.86 input   60.03 | X-H torsion

> <Gold.Protein.ActiveResidues>
 LEU49   GLY50   THR51   GLY52   SER53   PHE54   VAL57   LEU82   GLN84   HIS87  
 GLU127  MET128  PHE129  SER130  LEU132  ARG133  ARG134  ILE135  GLY136  ARG137 
 ARG165  ASP166  LEU167  LYS168  PRO169  GLU170  ASN171  LEU172  LEU173  THR183 
 ASP184  GLY186  PHE187  TPO197  LEU198  CYS199  GLY200  THR201  PRO202  GLU203 
 TYR204  LEU205  ILE209  ILE210  VAL226  LEU227  TYR229  GLU230  ALA233  GLY234 
 TYR235  PRO236  PRO237  PHE238  PHE239  ALA240  ASP241  GLN242  PRO243  ILE244 
 GLN245  ILE246  TYR247  ARG256  PHE257  PRO258  SER259  PHE327  ASP328  TYR330 

> <Gold.Protein.RotatedAtoms>
   20.7354   11.4775   -6.1252 H   0  0  0  0  0  0  0  0  0  0  0  0  # atno 550  bound_to 544 
   22.4294    8.8303    2.9275 H   0  0  0  0  0  0  0  0  0  0  0  0  # atno 567  bound_to 564 
   25.5270    5.1476  -12.7697 H   0  0  0  0  0  0  0  0  0  0  0  0  # atno 1860 bound_to 1855
   18.5509    3.3932   -1.5070 H   0  0  0  0  0  0  0  0  0  0  0  0  # atno 2535 bound_to 2524
   19.1003    4.1167   -0.1206 H   0  0  0  0  0  0  0  0  0  0  0  0  # atno 2536 bound_to 2524
   19.2332    4.9022   -1.5745 H   0  0  0  0  0  0  0  0  0  0  0  0  # atno 2537 bound_to 2524
   17.1480    2.8349    0.7828 H   0  0  0  0  0  0  0  0  0  0  0  0  # atno 3063 bound_to 3056
   20.4375   -5.1350   -4.1890 H   0  0  0  0  0  0  0  0  0  0  0  0  # atno 3111 bound_to 3104
   15.4063  -14.7092   -6.7589 H   0  0  0  0  0  0  0  0  0  0  0  0  # atno 3510 bound_to 3501
   16.8142  -14.1131  -12.0684 H   0  0  0  0  0  0  0  0  0  0  0  0  # atno 3590 bound_to 3581
    8.6902    0.9088    2.5003 H   0  0  0  0  0  0  0  0  0  0  0  0  # atno 3778 bound_to 3769
   22.0090    9.9476   -9.0601 H   0  0  0  0  0  0  0  0  0  0  0  0  # atno 5056 bound_to 5047
   15.5846  -13.7360  -13.0652 LP  0  0  0  0  0  0  0  0  0  0  0  0  # atno 5350 bound_to 3581
   15.2912  -14.0822  -11.4965 LP  0  0  0  0  0  0  0  0  0  0  0  0  # atno 5351 bound_to 3581
   16.3927  -14.8699   -8.0435 LP  0  0  0  0  0  0  0  0  0  0  0  0  # atno 5358 bound_to 3501
   15.5709  -13.4781   -7.8107 LP  0  0  0  0  0  0  0  0  0  0  0  0  # atno 5359 bound_to 3501
   10.1195    0.2498    2.0858 LP  0  0  0  0  0  0  0  0  0  0  0  0  # atno 5412 bound_to 3769
    9.7490    0.4797    3.6595 LP  0  0  0  0  0  0  0  0  0  0  0  0  # atno 5413 bound_to 3769
   17.9204    2.5031   -0.6106 LP  0  0  0  0  0  0  0  0  0  0  0  0  # atno 5416 bound_to 3056
   18.5577    2.0227    0.8141 LP  0  0  0  0  0  0  0  0  0  0  0  0  # atno 5417 bound_to 3056
   23.6092   10.1183   -8.8184 LP  0  0  0  0  0  0  0  0  0  0  0  0  # atno 5426 bound_to 5047
   23.0366    9.7882  -10.3117 LP  0  0  0  0  0  0  0  0  0  0  0  0  # atno 5427 bound_to 5047
   19.3087   12.0366   -5.5772 LP  0  0  0  0  0  0  0  0  0  0  0  0  # atno 5430 bound_to 544 
   20.0740   10.8299   -4.7868 LP  0  0  0  0  0  0  0  0  0  0  0  0  # atno 5431 bound_to 544 
   26.9413    5.0380  -11.9722 LP  0  0  0  0  0  0  0  0  0  0  0  0  # atno 5436 bound_to 1855
   25.6343    4.2171  -11.4389 LP  0  0  0  0  0  0  0  0  0  0  0  0  # atno 5437 bound_to 1855
   21.8695   -5.0613   -3.4187 LP  0  0  0  0  0  0  0  0  0  0  0  0  # atno 5458 bound_to 3104
   21.2491   -3.7256   -4.1240 LP  0  0  0  0  0  0  0  0  0  0  0  0  # atno 5459 bound_to 3104
   21.9719    9.2125    4.4420 LP  0  0  0  0  0  0  0  0  0  0  0  0  # atno 5468 bound_to 564 
   21.7912   10.2960    3.2337 LP  0  0  0  0  0  0  0  0  0  0  0  0  # atno 5469 bound_to 564 

> <Gold.Score>
     Fitness  S(hb_ext) S(vdw_ext)  S(hb_int)    S(int)      intcor
     24.53       6.00      13.78       0.00      -0.43      -0.76

> <Gold.Goldscore.Fitness>
24.5270

> <Gold.Goldscore.Internal.Vdw>
-0.5737

> <Gold.Goldscore.Internal.Torsion>
-0.6117

> <Gold.Goldscore.External.Vdw>
13.7847

> <Gold.Goldscore.Internal.HBond>
0.0000

> <Gold.Goldscore.External.HBond>
6.0000

> <Gold.Goldscore.Internal.Correction>
-0.7585

> <Gold.Goldscore.Hbonds>
donor molecule, donor type, donor heavy atom, donor atom, acceptor molecule, acceptor atom, score
      P1  H  1922  1932       L1     9  1.00

> <Gold.Goldscore.Internal.Vdw.Weighted>
-0.5737

> <Gold.Goldscore.Internal.Torsion.Weighted>
-0.6117

> <Gold.Goldscore.External.Vdw.Weighted>
18.9539

> <Gold.Goldscore.Internal.HBond.Weighted>
0.0000

> <Gold.Goldscore.External.HBond.Weighted>
6.0000

> <Gold.Goldscore.Internal.Correction.Weighted>
-0.7585

> <Gold.Rescore>
     Score     S(PLP)   S(hbond)     S(cho)   S(metal)  DE(clash)   DE(tors)     intcor
     22.46     -16.90       1.86       0.00       0.00       0.00       0.01       ----

> <Gold.PLP.Fitness>
22.4631

> <Gold.PLP.PLP>
-16.8994

> <Gold.PLP.part.hbond>
-2.0000

> <Gold.PLP.part.metal>
0.0000

> <Gold.PLP.part.buried>
-2.3457

> <Gold.PLP.part.nonpolar>
-13.2910

> <Gold.PLP.part.repulsive>
0.1028

> <Gold.PLP.ligand.clash>
0.0000

> <Gold.PLP.ligand.torsion>
0.0144

> <Gold.PLP.Chemscore.Hbond>
1.8642

> <Gold.PLP.Chemscore.CHOScore>
0.0000

> <Gold.PLP.Chemscore.Metal>
0.0000

> <Gold.Chemscore.Hbonds>
donor molecule, donor type, donor heavy atom, donor atom, acceptor molecule, acceptor atom, score
      P1  H  1922  1932       L1     9  1.00

> <Gold.PLP.Chemscore.Internal.Correction>
   9.000000E+99

