#       Name:                CT1002167954
#       Creating user name   hitesit
#       Creation time:       Sun Apr 16 20:16:42 2023


#       File generated by GOLD software.
#

@<TRIPOS>MOLECULE
CT1002167954|ligand_prepared|mol2|1|dock1
    29    30     1
SMALL
NO_CHARGES


@<TRIPOS>ATOM
      1 C1          19.2592   7.3961  -4.5066 C.3            1 RES1               0.0000
      2 C2          20.7971   7.3029  -4.5790 C.ar           1 RES1               0.0000
      3 C3          18.8658   6.9118  -3.1142 C.2            1 RES1               0.0000
      4 C4          18.9068   8.8539  -4.7808 C.2            1 RES1               0.0000
      5 C5          18.5303   6.5231  -5.5545 C.3            1 RES1               0.0000
      6 C6          21.4628   7.4986  -5.7854 C.ar           1 RES1               0.0000
      7 C7          21.5623   7.0252  -3.4495 C.ar           1 RES1               0.0000
      8 N8          18.4620   7.8493  -2.2098 N.am           1 RES1               0.0000
      9 O9          18.9463   5.7301  -2.8022 O.2            1 RES1               0.0000
     10 N10         18.3386   9.5790  -3.7663 N.am           1 RES1               0.0000
     11 O11         19.1313   9.3860  -5.8610 O.2            1 RES1               0.0000
     12 C12         17.0247   6.4533  -5.3539 C.3            1 RES1               0.0000
     13 C13         22.8437   7.4223  -5.8594 C.ar           1 RES1               0.0000
     14 C14         22.9433   6.9492  -3.5258 C.ar           1 RES1               0.0000
     15 C15         18.1285   9.1514  -2.4836 C.2            1 RES1               0.0000
     16 C16         23.5849   7.1481  -4.7297 C.ar           1 RES1               0.0000
     17 O17         17.6628   9.8798  -1.6120 O.2            1 RES1               0.0000
     18 H18         18.7351   6.9263  -6.5539 H              1 RES1               0.0000
     19 H19         18.9395   5.5061  -5.5129 H              1 RES1               0.0000
     20 H20         20.8961   7.7130  -6.6854 H              1 RES1               0.0000
     21 H21         21.0790   6.8642  -2.4919 H              1 RES1               0.0000
     22 H22         18.4027   7.5551  -1.2401 H              1 RES1               0.0000
     23 H23         18.0450  10.5250  -3.9878 H              1 RES1               0.0000
     24 H24         16.5626   5.8286  -6.1154 H              1 RES1               0.0000
     25 H25         16.7844   6.0333  -4.3794 H              1 RES1               0.0000
     26 H26         16.5812   7.4451  -5.4142 H              1 RES1               0.0000
     27 H27         23.3438   7.5783  -6.8096 H              1 RES1               0.0000
     28 H28         23.5225   6.7325  -2.6343 H              1 RES1               0.0000
     29 H29         24.6667   7.0887  -4.7879 H              1 RES1               0.0000
@<TRIPOS>BOND
    1    1    2 1     
    2    1    3 1     
    3    1    4 1     
    4    1    5 1     
    5    2    6 ar    
    6    2    7 ar    
    7    3    8 1     
    8    3    9 2     
    9    4   10 1     
   10    4   11 2     
   11    5   12 1     
   12    5   18 1     
   13    5   19 1     
   14    6   13 ar    
   15    6   20 1     
   16    7   14 ar    
   17    7   21 1     
   18    8   15 1     
   19    8   22 1     
   20   10   15 1     
   21   10   23 1     
   22   12   24 1     
   23   12   25 1     
   24   12   26 1     
   25   13   16 ar    
   26   13   27 1     
   27   14   16 ar    
   28   14   28 1     
   29   15   17 2     
   30   16   29 1     
@<TRIPOS>SUBSTRUCTURE
      1 RES1           1
@<TRIPOS>SET
DONOR_HYDROGENS      STATIC     ATOMS    <user>   **** ""
2 22 23
ATOM$RED        STATIC     ATOMS    COLORGROUP SYSTEM
2 22 23
@<TRIPOS>COMMENT
> <Gold.Version>
2022.3.0

> <Gold.Id.Protein>
unknown|3nx8_clean|pdb

> <Gold.Protein.RotatedTorsions>
[ 3590 3581 3580 3578 ] final -109.89 input   60.00 | X-H torsion
[ 3510 3501 3500 3498 ] final  134.62 input   59.99 | X-H torsion
[ 3778 3769 3768 3766 ] final -113.71 input   60.02 | X-H torsion
[ 2535 2524 2523 2522 ] final   -5.98 input   60.02 | X-H torsion
[ 3063 3056 3054 3051 ] final -109.13 input   59.97 | X-H torsion
[ 5056 5047 5046 5044 ] final   83.57 input   59.99 | X-H torsion
[  550  544  542  539 ] final   20.51 input   60.01 | X-H torsion
[ 1860 1855 1854 1851 ] final  -88.29 input   60.02 | X-H torsion
[ 3111 3104 3103 3101 ] final  153.64 input   60.01 | X-H torsion
[  567  564  563  560 ] final  137.20 input   60.03 | X-H torsion

> <Gold.Protein.ActiveResidues>
 LEU49   GLY50   THR51   GLY52   SER53   PHE54   VAL57   LEU82   GLN84   HIS87  
 GLU127  MET128  PHE129  SER130  LEU132  ARG133  ARG134  ILE135  GLY136  ARG137 
 ARG165  ASP166  LEU167  LYS168  PRO169  GLU170  ASN171  LEU172  LEU173  THR183 
 ASP184  GLY186  PHE187  TPO197  LEU198  CYS199  GLY200  THR201  PRO202  GLU203 
 TYR204  LEU205  ILE209  ILE210  VAL226  LEU227  TYR229  GLU230  ALA233  GLY234 
 TYR235  PRO236  PRO237  PHE238  PHE239  ALA240  ASP241  GLN242  PRO243  ILE244 
 GLN245  ILE246  TYR247  ARG256  PHE257  PRO258  SER259  PHE327  ASP328  TYR330 

> <Gold.Protein.RotatedAtoms>
   20.6111   10.7770   -5.1798 H   0  0  0  0  0  0  0  0  0  0  0  0  # atno 550  bound_to 544 
   21.8086    9.6349    4.4137 H   0  0  0  0  0  0  0  0  0  0  0  0  # atno 567  bound_to 564 
   25.4039    5.0601  -12.7055 H   0  0  0  0  0  0  0  0  0  0  0  0  # atno 1860 bound_to 1855
   18.5510    3.2795   -1.1730 H   0  0  0  0  0  0  0  0  0  0  0  0  # atno 2535 bound_to 2524
   19.2336    4.4337   -0.1988 H   0  0  0  0  0  0  0  0  0  0  0  0  # atno 2536 bound_to 2524
   19.0999    4.6989   -1.8299 H   0  0  0  0  0  0  0  0  0  0  0  0  # atno 2537 bound_to 2524
   17.4720    2.7472   -0.4636 H   0  0  0  0  0  0  0  0  0  0  0  0  # atno 3063 bound_to 3056
   21.9759   -4.7851   -3.4321 H   0  0  0  0  0  0  0  0  0  0  0  0  # atno 3111 bound_to 3104
   16.2236  -15.1808   -7.5949 H   0  0  0  0  0  0  0  0  0  0  0  0  # atno 3510 bound_to 3501
   16.8287  -14.0841  -12.1949 H   0  0  0  0  0  0  0  0  0  0  0  0  # atno 3590 bound_to 3581
    9.4526    0.6114    3.6800 H   0  0  0  0  0  0  0  0  0  0  0  0  # atno 3778 bound_to 3769
   23.3482   10.1407   -8.6059 H   0  0  0  0  0  0  0  0  0  0  0  0  # atno 5056 bound_to 5047
   15.4648  -13.7356  -13.0110 LP  0  0  0  0  0  0  0  0  0  0  0  0  # atno 5350 bound_to 3581
   15.3963  -14.1117  -11.4234 LP  0  0  0  0  0  0  0  0  0  0  0  0  # atno 5351 bound_to 3581
   15.9427  -13.6926   -8.1909 LP  0  0  0  0  0  0  0  0  0  0  0  0  # atno 5358 bound_to 3501
   15.1983  -14.1808   -6.8219 LP  0  0  0  0  0  0  0  0  0  0  0  0  # atno 5359 bound_to 3501
    8.8084    0.8465    2.2040 LP  0  0  0  0  0  0  0  0  0  0  0  0  # atno 5412 bound_to 3769
   10.2927    0.1823    2.3537 LP  0  0  0  0  0  0  0  0  0  0  0  0  # atno 5413 bound_to 3769
   18.6915    1.9865    0.2994 LP  0  0  0  0  0  0  0  0  0  0  0  0  # atno 5416 bound_to 3056
   17.4603    2.6277    1.1593 LP  0  0  0  0  0  0  0  0  0  0  0  0  # atno 5417 bound_to 3056
   23.3543    9.8341  -10.2040 LP  0  0  0  0  0  0  0  0  0  0  0  0  # atno 5426 bound_to 5047
   21.9431    9.8780   -9.3835 LP  0  0  0  0  0  0  0  0  0  0  0  0  # atno 5427 bound_to 5047
   20.2696   11.9320   -6.2742 LP  0  0  0  0  0  0  0  0  0  0  0  0  # atno 5430 bound_to 544 
   19.2384   11.6401   -5.0421 LP  0  0  0  0  0  0  0  0  0  0  0  0  # atno 5431 bound_to 544 
   26.9162    5.1286  -12.1081 LP  0  0  0  0  0  0  0  0  0  0  0  0  # atno 5436 bound_to 1855
   25.7834    4.2146  -11.3677 LP  0  0  0  0  0  0  0  0  0  0  0  0  # atno 5437 bound_to 1855
   20.9878   -3.7850   -4.2525 LP  0  0  0  0  0  0  0  0  0  0  0  0  # atno 5458 bound_to 3104
   20.5825   -5.3541   -4.0519 LP  0  0  0  0  0  0  0  0  0  0  0  0  # atno 5459 bound_to 3104
   21.9481   10.0925    2.8579 LP  0  0  0  0  0  0  0  0  0  0  0  0  # atno 5468 bound_to 564 
   22.4398    8.6060    3.3218 LP  0  0  0  0  0  0  0  0  0  0  0  0  # atno 5469 bound_to 564 

> <Gold.Score>
     Fitness  S(hb_ext) S(vdw_ext)  S(hb_int)    S(int)      intcor
     28.84       6.00      17.88       0.00      -1.75      -0.77

> <Gold.Goldscore.Fitness>
28.8418

> <Gold.Goldscore.Internal.Vdw>
-2.0300

> <Gold.Goldscore.Internal.Torsion>
-0.4872

> <Gold.Goldscore.External.Vdw>
17.8839

> <Gold.Goldscore.Internal.HBond>
0.0000

> <Gold.Goldscore.External.HBond>
6.0000

> <Gold.Goldscore.Internal.Correction>
-0.7686

> <Gold.Goldscore.Hbonds>
donor molecule, donor type, donor heavy atom, donor atom, acceptor molecule, acceptor atom, score
      P1  H  2524  2537       L1     9  1.00

> <Gold.Goldscore.Internal.Vdw.Weighted>
-2.0300

> <Gold.Goldscore.Internal.Torsion.Weighted>
-0.4872

> <Gold.Goldscore.External.Vdw.Weighted>
24.5903

> <Gold.Goldscore.Internal.HBond.Weighted>
0.0000

> <Gold.Goldscore.External.HBond.Weighted>
6.0000

> <Gold.Goldscore.Internal.Correction.Weighted>
-0.7686

> <Gold.Rescore>
     Score     S(PLP)   S(hbond)     S(cho)   S(metal)  DE(clash)   DE(tors)     intcor
     23.49     -22.06       1.00       0.00       0.00       1.27       0.15       ----

> <Gold.PLP.Fitness>
23.4943

> <Gold.PLP.PLP>
-22.0587

> <Gold.PLP.part.hbond>
-1.5742

> <Gold.PLP.part.metal>
0.0000

> <Gold.PLP.part.buried>
-2.1141

> <Gold.PLP.part.nonpolar>
-19.1264

> <Gold.PLP.part.repulsive>
0.1545

> <Gold.PLP.ligand.clash>
1.2727

> <Gold.PLP.ligand.torsion>
0.1458

> <Gold.PLP.Chemscore.Hbond>
1.0000

> <Gold.PLP.Chemscore.CHOScore>
0.0000

> <Gold.PLP.Chemscore.Metal>
0.0000

> <Gold.Chemscore.Hbonds>
donor molecule, donor type, donor heavy atom, donor atom, acceptor molecule, acceptor atom, score
      P1  H  2524  2537       L1     9  0.57
      P1  H   544   550       L1    11  0.07

> <Gold.PLP.Chemscore.Internal.Correction>
   9.000000E+99

