#       Name:                CT1002167954
#       Creating user name   hitesit
#       Creation time:       Sun Apr 16 20:20:25 2023


#       File generated by GOLD software.
#

@<TRIPOS>MOLECULE
CT1002167954|ligand_prepared|mol2|1|dock2
    29    30     1
SMALL
NO_CHARGES


@<TRIPOS>ATOM
      1 C1         136.7584 141.3833 165.7297 C.3            1 RES1               0.0000
      2 C2         136.2606 140.2040 164.8694 C.ar           1 RES1               0.0000
      3 C3         138.2671 141.2038 165.8708 C.2            1 RES1               0.0000
      4 C4         136.3493 142.6528 164.9910 C.2            1 RES1               0.0000
      5 C5         136.1351 141.4317 167.1441 C.3            1 RES1               0.0000
      6 C6         136.5025 140.1747 163.4992 C.ar           1 RES1               0.0000
      7 C7         135.5617 139.1388 165.4311 C.ar           1 RES1               0.0000
      8 N8         139.0725 142.0410 165.1565 N.am           1 RES1               0.0000
      9 O9         138.7425 140.3156 166.5675 O.2            1 RES1               0.0000
     10 N10        137.3430 143.4556 164.4951 N.am           1 RES1               0.0000
     11 O11        135.1752 142.9566 164.8194 O.2            1 RES1               0.0000
     12 C12        136.4914 142.6846 167.9287 C.3            1 RES1               0.0000
     13 C13        136.0642 139.1174 162.7192 C.ar           1 RES1               0.0000
     14 C14        135.1240 138.0826 164.6491 C.ar           1 RES1               0.0000
     15 C15        138.6854 143.1915 164.5176 C.2            1 RES1               0.0000
     16 C16        135.3751 138.0706 163.2936 C.ar           1 RES1               0.0000
     17 O17        139.5143 143.9360 164.0021 O.2            1 RES1               0.0000
     18 H18        135.0437 141.3717 167.0513 H              1 RES1               0.0000
     19 H19        136.4723 140.5538 167.7089 H              1 RES1               0.0000
     20 H20        137.0410 140.9908 163.0291 H              1 RES1               0.0000
     21 H21        135.3518 139.1275 166.4952 H              1 RES1               0.0000
     22 H22        140.0534 141.7882 165.0912 H              1 RES1               0.0000
     23 H23        137.0554 144.3313 164.0699 H              1 RES1               0.0000
     24 H24        136.0287 142.6679 168.9132 H              1 RES1               0.0000
     25 H25        137.5684 142.7631 168.0617 H              1 RES1               0.0000
     26 H26        136.1483 143.5763 167.4080 H              1 RES1               0.0000
     27 H27        136.2632 139.1134 161.6526 H              1 RES1               0.0000
     28 H28        134.5816 137.2611 165.1053 H              1 RES1               0.0000
     29 H29        135.0323 137.2423 162.6824 H              1 RES1               0.0000
@<TRIPOS>BOND
    1    1    2 1     
    2    1    3 1     
    3    1    4 1     
    4    1    5 1     
    5    2    6 ar    
    6    2    7 ar    
    7    3    8 1     
    8    3    9 2     
    9    4   10 1     
   10    4   11 2     
   11    5   12 1     
   12    5   18 1     
   13    5   19 1     
   14    6   13 ar    
   15    6   20 1     
   16    7   14 ar    
   17    7   21 1     
   18    8   15 1     
   19    8   22 1     
   20   10   15 1     
   21   10   23 1     
   22   12   24 1     
   23   12   25 1     
   24   12   26 1     
   25   13   16 ar    
   26   13   27 1     
   27   14   16 ar    
   28   14   28 1     
   29   15   17 2     
   30   16   29 1     
@<TRIPOS>SUBSTRUCTURE
      1 RES1           1
@<TRIPOS>SET
DONOR_HYDROGENS      STATIC     ATOMS    <user>   **** ""
2 22 23
ATOM$RED        STATIC     ATOMS    COLORGROUP SYSTEM
2 22 23
@<TRIPOS>COMMENT
> <Gold.Version>
2022.3.0

> <Gold.Id.Protein>
unknown|7rmi_cavity_clean|pdb

> <Gold.Protein.RotatedTorsions>
[  882  862  863  864 ] final  152.20 input   59.67 | X-H torsion
[ 4344 4325 4326 4327 ] final  -14.24 input   58.17 | X-H torsion
[ 1839 1834 1833 1830 ] final  164.79 input   59.99 | X-H torsion
[  114  103  104  105 ] final -145.39 input  112.99 | X-H torsion
[  166  159  158  157 ] final  158.29 input   59.97 | X-H torsion
[ 4684 4679 4678 4675 ] final  130.14 input   59.98 | X-H torsion
[ 8046 8035 8034 8033 ] final  -12.82 input   59.99 | X-H torsion
[ 2742 2733 2732 2730 ] final -179.84 input   60.00 | X-H torsion
[ 3268 3259 3258 3256 ] final   61.49 input   59.98 | X-H torsion
[  210  204  203  201 ] final  -42.67 input   60.02 | X-H torsion
[ 1184 1170 1171 1172 ] final  -94.95 input   67.97 | X-H torsion
[  241  225  226  227 ] final   26.54 input   51.53 | X-H torsion
[ 2774 2765 2764 2762 ] final  120.80 input   60.03 | X-H torsion
[ 3932 3927 3928 3929 ] final  108.25 input   88.25 | X-H torsion
[  295  288  286  283 ] final -113.99 input   60.03 | X-H torsion
[  297  289  290  291 ] final -156.89 input  115.34 | X-H torsion
[ 4755 4748 4746 4743 ] final   53.19 input   60.02 | X-H torsion
[ 1228 1222 1220 1217 ] final  144.18 input   59.96 | X-H torsion
[   74   64   65   66 ] final   79.95 input  112.25 | X-H torsion
[ 3990 3972 3973 3974 ] final  168.79 input   60.58 | X-H torsion
[ 1778 1767 1768 1769 ] final    4.12 input  110.17 | X-H torsion
[  348  334  335  336 ] final  -84.84 input   81.54 | X-H torsion
[ 4022 4013 4012 4010 ] final  171.72 input   60.01 | X-H torsion
[ 1809 1802 1800 1797 ] final  156.23 input   60.00 | X-H torsion
[ 14302  865  864  863 ] final  -45.43 input   -0.00 | X-H torsion
[ 14307 4328 4327 4326 ] final   99.66 input   -0.00 | X-H torsion
[ 14336  106  105  104 ] final  -77.57 input    0.00 | X-H torsion
[ 14422 1173 1172 1171 ] final   86.12 input   -0.00 | X-H torsion
[ 14429  228  227  226 ] final  124.50 input    0.00 | X-H torsion
[ 14438 3930 3929 3928 ] final   83.30 input   -0.00 | X-H torsion
[ 14453  292  291  290 ] final  131.24 input    0.00 | X-H torsion
[ 14470   67   66   65 ] final -169.87 input   -0.00 | X-H torsion
[ 14478 3975 3974 3973 ] final -102.83 input   -0.00 | X-H torsion
[ 14485 1770 1769 1768 ] final -106.80 input   -0.00 | X-H torsion
[ 14496  337  336  335 ] final -172.88 input   -0.00 | X-H torsion

> <Gold.Protein.ActiveResidues>
 GLU27   LEU30   GLN31   ASP33   LYS34   GLN35   VAL36   TYR37   ARG38   THR40  
 HIS41   ARG42   GLU209  HIS220  PHE222  GLN236  ASN239  ASP240  VAL241  THR242 
 ARG280  TRP281  LEU282  ARG283  THR284  ILE285  SER286  VAL287  ILE288  GLY355 
 ARG356  HIS357  TYR358  CYS359  TYR360  ASP381  ILE382  ILE383  GLN385  MET386 
 ASN387  LEU388  ARG389  GLU390  TYR391  VAL394  ALA56   LYS57   ILE58   TYR59  
 ALA60   MET61   LEU79   ILE80   ILE81   TRP82   ILE93   SER98   TRP99   VAL100 
 MET101  THR102  CYS103  GLY310  HIS311  ASP312  ASN313  TRP332  ASP333  SER334 
 PHE335  LYS337 

> <Gold.Protein.RotatedAtoms>
  114.7313  151.6196  180.0809 H   0  0  0  0  0  0  0  0  0  0  0  0  # atno 74   bound_to 64  
  108.6290  133.5481   97.5217 H   0  0  0  0  0  0  0  0  0  0  0  0  # atno 114  bound_to 103 
  143.8143  139.2759  142.1607 H   0  0  0  0  0  0  0  0  0  0  0  0  # atno 166  bound_to 159 
  144.4840  139.6230  140.6846 H   0  0  0  0  0  0  0  0  0  0  0  0  # atno 167  bound_to 159 
  145.1333  138.4250  141.6284 H   0  0  0  0  0  0  0  0  0  0  0  0  # atno 168  bound_to 159 
  144.7452  133.3731  150.6756 H   0  0  0  0  0  0  0  0  0  0  0  0  # atno 210  bound_to 204 
  131.2352  113.4142  179.6718 H   0  0  0  0  0  0  0  0  0  0  0  0  # atno 241  bound_to 225 
  153.6147  129.2036  147.1587 H   0  0  0  0  0  0  0  0  0  0  0  0  # atno 295  bound_to 288 
  114.5766  137.7814  109.2124 H   0  0  0  0  0  0  0  0  0  0  0  0  # atno 297  bound_to 289 
  115.5632  158.2365  160.5514 H   0  0  0  0  0  0  0  0  0  0  0  0  # atno 348  bound_to 334 
  130.6159  143.8297  184.7464 H   0  0  0  0  0  0  0  0  0  0  0  0  # atno 882  bound_to 862 
  131.7162  156.7191  180.3405 H   0  0  0  0  0  0  0  0  0  0  0  0  # atno 1184 bound_to 1170
  144.8257  125.8948  148.6134 H   0  0  0  0  0  0  0  0  0  0  0  0  # atno 1228 bound_to 1222
  125.5417  158.8753  169.2131 H   0  0  0  0  0  0  0  0  0  0  0  0  # atno 1778 bound_to 1767
  131.9192  128.7028  152.0651 H   0  0  0  0  0  0  0  0  0  0  0  0  # atno 1809 bound_to 1802
  138.0080  119.1742  149.2110 H   0  0  0  0  0  0  0  0  0  0  0  0  # atno 1839 bound_to 1834
  130.0771  117.3814  143.8780 H   0  0  0  0  0  0  0  0  0  0  0  0  # atno 2742 bound_to 2733
  137.1913  116.4391  145.5504 H   0  0  0  0  0  0  0  0  0  0  0  0  # atno 2774 bound_to 2765
  138.8380  130.8587  135.5605 H   0  0  0  0  0  0  0  0  0  0  0  0  # atno 3268 bound_to 3259
  114.6105  117.3624  167.1458 H   0  0  0  0  0  0  0  0  0  0  0  0  # atno 3932 bound_to 3927
  118.1635  114.0351  167.4646 H   0  0  0  0  0  0  0  0  0  0  0  0  # atno 3990 bound_to 3972
  138.1182  137.3048  165.0300 H   0  0  0  0  0  0  0  0  0  0  0  0  # atno 4022 bound_to 4013
  116.0693  119.8354  182.1842 H   0  0  0  0  0  0  0  0  0  0  0  0  # atno 4344 bound_to 4325
  148.9546  134.8580  154.9501 H   0  0  0  0  0  0  0  0  0  0  0  0  # atno 4684 bound_to 4679
  143.0748  144.7584  167.0453 H   0  0  0  0  0  0  0  0  0  0  0  0  # atno 4755 bound_to 4748
  133.2426  147.6144  149.4786 H   0  0  0  0  0  0  0  0  0  0  0  0  # atno 8046 bound_to 8035
  132.1504  146.7530  148.5775 H   0  0  0  0  0  0  0  0  0  0  0  0  # atno 8047 bound_to 8035
  133.1371  147.8649  147.8432 H   0  0  0  0  0  0  0  0  0  0  0  0  # atno 8048 bound_to 8035
  130.4646  142.0865  184.8261 LP  0  0  0  0  0  0  0  0  0  0  0  0  # atno 14301 bound_to 862 
  129.4679  142.1297  181.5706 LP  0  0  0  0  0  0  0  0  0  0  0  0  # atno 14302 bound_to 865 
  129.4783  140.5089  182.1814 LP  0  0  0  0  0  0  0  0  0  0  0  0  # atno 14303 bound_to 865 
  116.6724  120.9944  181.0151 LP  0  0  0  0  0  0  0  0  0  0  0  0  # atno 14306 bound_to 4325
  116.7246  117.7336  183.2373 LP  0  0  0  0  0  0  0  0  0  0  0  0  # atno 14307 bound_to 4328
  118.3514  117.6189  182.6538 LP  0  0  0  0  0  0  0  0  0  0  0  0  # atno 14308 bound_to 4328
  138.6454  119.5953  150.6478 LP  0  0  0  0  0  0  0  0  0  0  0  0  # atno 14311 bound_to 1834
  137.9817  120.7319  149.6812 LP  0  0  0  0  0  0  0  0  0  0  0  0  # atno 14312 bound_to 1834
  109.0800  135.2355   97.5136 LP  0  0  0  0  0  0  0  0  0  0  0  0  # atno 14335 bound_to 103 
  111.4215  134.3161  100.8896 LP  0  0  0  0  0  0  0  0  0  0  0  0  # atno 14336 bound_to 106 
  112.8764  134.7454  100.0535 LP  0  0  0  0  0  0  0  0  0  0  0  0  # atno 14337 bound_to 106 
  148.3975  135.8008  156.1542 LP  0  0  0  0  0  0  0  0  0  0  0  0  # atno 14376 bound_to 4679
  148.1461  134.1878  156.1936 LP  0  0  0  0  0  0  0  0  0  0  0  0  # atno 14377 bound_to 4679
  128.9855  116.6883  144.8659 LP  0  0  0  0  0  0  0  0  0  0  0  0  # atno 14397 bound_to 2733
  129.8229  115.7760  143.8014 LP  0  0  0  0  0  0  0  0  0  0  0  0  # atno 14398 bound_to 2733
  139.2427  130.6961  133.9928 LP  0  0  0  0  0  0  0  0  0  0  0  0  # atno 14401 bound_to 3259
  139.6517  129.5380  135.0690 LP  0  0  0  0  0  0  0  0  0  0  0  0  # atno 14402 bound_to 3259
  143.7386  133.9887  149.5545 LP  0  0  0  0  0  0  0  0  0  0  0  0  # atno 14409 bound_to 204 
  144.2733  134.9274  150.7791 LP  0  0  0  0  0  0  0  0  0  0  0  0  # atno 14410 bound_to 204 
  130.4713  157.8861  179.9479 LP  0  0  0  0  0  0  0  0  0  0  0  0  # atno 14421 bound_to 1170
  127.1880  155.7110  181.7912 LP  0  0  0  0  0  0  0  0  0  0  0  0  # atno 14422 bound_to 1173
  128.1282  154.3905  182.4014 LP  0  0  0  0  0  0  0  0  0  0  0  0  # atno 14423 bound_to 1173
  129.6466  113.7607  180.3172 LP  0  0  0  0  0  0  0  0  0  0  0  0  # atno 14428 bound_to 225 
  133.8965  113.6155  180.8971 LP  0  0  0  0  0  0  0  0  0  0  0  0  # atno 14429 bound_to 228 
  133.2153  112.1749  180.2186 LP  0  0  0  0  0  0  0  0  0  0  0  0  # atno 14430 bound_to 228 
  136.4862  115.0669  145.0328 LP  0  0  0  0  0  0  0  0  0  0  0  0  # atno 14433 bound_to 2765
  137.9873  115.4592  144.5235 LP  0  0  0  0  0  0  0  0  0  0  0  0  # atno 14434 bound_to 2765
  114.8168  116.1686  168.4071 LP  0  0  0  0  0  0  0  0  0  0  0  0  # atno 14437 bound_to 3927
  116.0514  112.9254  165.5294 LP  0  0  0  0  0  0  0  0  0  0  0  0  # atno 14438 bound_to 3930
  116.5597  113.1051  167.1754 LP  0  0  0  0  0  0  0  0  0  0  0  0  # atno 14439 bound_to 3930
  153.0528  130.6933  146.8224 LP  0  0  0  0  0  0  0  0  0  0  0  0  # atno 14450 bound_to 288 
  152.8273  129.4734  145.7605 LP  0  0  0  0  0  0  0  0  0  0  0  0  # atno 14451 bound_to 288 
  114.2338  136.2457  109.9708 LP  0  0  0  0  0  0  0  0  0  0  0  0  # atno 14452 bound_to 289 
  113.4201  137.4105  114.2774 LP  0  0  0  0  0  0  0  0  0  0  0  0  # atno 14453 bound_to 292 
  114.8243  138.0880  113.5229 LP  0  0  0  0  0  0  0  0  0  0  0  0  # atno 14454 bound_to 292 
  144.6742  145.0278  167.1779 LP  0  0  0  0  0  0  0  0  0  0  0  0  # atno 14459 bound_to 4748
  143.8462  144.3797  168.4273 LP  0  0  0  0  0  0  0  0  0  0  0  0  # atno 14460 bound_to 4748
  143.5886  126.7067  149.2913 LP  0  0  0  0  0  0  0  0  0  0  0  0  # atno 14463 bound_to 1222
  143.4309  126.0744  147.7939 LP  0  0  0  0  0  0  0  0  0  0  0  0  # atno 14464 bound_to 1222
  114.6174  152.6518  181.4844 LP  0  0  0  0  0  0  0  0  0  0  0  0  # atno 14469 bound_to 64  
  113.9167  156.0280  178.3159 LP  0  0  0  0  0  0  0  0  0  0  0  0  # atno 14470 bound_to 67  
  115.3959  156.0573  179.2165 LP  0  0  0  0  0  0  0  0  0  0  0  0  # atno 14471 bound_to 67  
  119.4374  113.2310  166.5693 LP  0  0  0  0  0  0  0  0  0  0  0  0  # atno 14477 bound_to 3972
  120.1176  110.0552  167.9561 LP  0  0  0  0  0  0  0  0  0  0  0  0  # atno 14478 bound_to 3975
  120.3180  111.1339  166.6159 LP  0  0  0  0  0  0  0  0  0  0  0  0  # atno 14479 bound_to 3975
  125.0085  160.1459  170.2863 LP  0  0  0  0  0  0  0  0  0  0  0  0  # atno 14484 bound_to 1767
  122.8094  156.1055  168.9971 LP  0  0  0  0  0  0  0  0  0  0  0  0  # atno 14485 bound_to 1770
  121.5181  157.1385  168.4816 LP  0  0  0  0  0  0  0  0  0  0  0  0  # atno 14486 bound_to 1770
  114.8376  159.0167  159.1646 LP  0  0  0  0  0  0  0  0  0  0  0  0  # atno 14495 bound_to 334 
  118.6583  159.5514  157.8230 LP  0  0  0  0  0  0  0  0  0  0  0  0  # atno 14496 bound_to 337 
  116.9603  159.8183  158.0367 LP  0  0  0  0  0  0  0  0  0  0  0  0  # atno 14497 bound_to 337 
  138.1500  136.0522  163.9917 LP  0  0  0  0  0  0  0  0  0  0  0  0  # atno 14500 bound_to 4013
  136.9561  137.1625  163.8999 LP  0  0  0  0  0  0  0  0  0  0  0  0  # atno 14501 bound_to 4013
  131.1940  127.3976  152.7131 LP  0  0  0  0  0  0  0  0  0  0  0  0  # atno 14506 bound_to 1802
  131.0029  127.7382  151.1274 LP  0  0  0  0  0  0  0  0  0  0  0  0  # atno 14507 bound_to 1802

> <Gold.Score>
     Fitness  S(hb_ext) S(vdw_ext)  S(hb_int)    S(int)      intcor
     38.85       2.00      26.82       0.00      -0.02      -0.76

> <Gold.Goldscore.Fitness>
38.8503

> <Gold.Goldscore.Internal.Vdw>
-0.3359

> <Gold.Goldscore.Internal.Torsion>
-0.4470

> <Gold.Goldscore.External.Vdw>
26.8179

> <Gold.Goldscore.Internal.HBond>
0.0000

> <Gold.Goldscore.External.HBond>
2.0000

> <Gold.Goldscore.Internal.Correction>
-0.7585

> <Gold.Goldscore.Hbonds>
donor molecule, donor type, donor heavy atom, donor atom, acceptor molecule, acceptor atom, score
      L1  H     8    22       P1  4728  1.00

> <Gold.Goldscore.Internal.Vdw.Weighted>
-0.3359

> <Gold.Goldscore.Internal.Torsion.Weighted>
-0.4470

> <Gold.Goldscore.External.Vdw.Weighted>
36.8746

> <Gold.Goldscore.Internal.HBond.Weighted>
0.0000

> <Gold.Goldscore.External.HBond.Weighted>
2.0000

> <Gold.Goldscore.Internal.Correction.Weighted>
-0.7585

> <Gold.Rescore>
     Score     S(PLP)   S(hbond)     S(cho)   S(metal)  DE(clash)   DE(tors)     intcor
     27.98     -25.40       1.00       0.00       0.00       0.00       0.21       ----

> <Gold.PLP.Fitness>
27.9846

> <Gold.PLP.PLP>
-25.3965

> <Gold.PLP.part.hbond>
-2.2026

> <Gold.PLP.part.metal>
0.0000

> <Gold.PLP.part.buried>
5.1036

> <Gold.PLP.part.nonpolar>
-31.4337

> <Gold.PLP.part.repulsive>
2.0936

> <Gold.PLP.ligand.clash>
0.0000

> <Gold.PLP.ligand.torsion>
0.2060

> <Gold.PLP.Chemscore.Hbond>
1.0000

> <Gold.PLP.Chemscore.CHOScore>
0.0000

> <Gold.PLP.Chemscore.Metal>
0.0000

> <Gold.Chemscore.Hbonds>
donor molecule, donor type, donor heavy atom, donor atom, acceptor molecule, acceptor atom, score
      L1  H     8    22       P1  4728  0.86

> <Gold.PLP.Chemscore.Internal.Correction>
   9.000000E+99

