#       Name:                CT1002167954
#       Creating user name   hitesit
#       Creation time:       Sun Apr 16 20:20:12 2023


#       File generated by GOLD software.
#

@<TRIPOS>MOLECULE
CT1002167954|ligand_prepared|mol2|1|dock1
    29    30     1
SMALL
NO_CHARGES


@<TRIPOS>ATOM
      1 C1         137.9696 143.8211 166.5839 C.3            1 RES1               0.0000
      2 C2         137.5217 142.6075 165.7440 C.ar           1 RES1               0.0000
      3 C3         139.2684 143.4104 167.2714 C.2            1 RES1               0.0000
      4 C4         138.1227 144.9823 165.6077 C.2            1 RES1               0.0000
      5 C5         136.9507 144.2403 167.6690 C.3            1 RES1               0.0000
      6 C6         136.5897 141.7039 166.2455 C.ar           1 RES1               0.0000
      7 C7         138.0287 142.3802 164.4673 C.ar           1 RES1               0.0000
      8 N8         140.4302 143.9461 166.7990 N.am           1 RES1               0.0000
      9 O9         139.2769 142.5984 168.1884 O.2            1 RES1               0.0000
     10 N10        139.3788 145.4926 165.4088 N.am           1 RES1               0.0000
     11 O11        137.1693 145.4491 164.9965 O.2            1 RES1               0.0000
     12 C12        137.1981 145.6280 168.2391 C.3            1 RES1               0.0000
     13 C13        136.1772 140.6141 165.4968 C.ar           1 RES1               0.0000
     14 C14        137.6150 141.2897 163.7203 C.ar           1 RES1               0.0000
     15 C15        140.5439 145.0070 165.9369 C.2            1 RES1               0.0000
     16 C16        136.6891 140.4065 164.2337 C.ar           1 RES1               0.0000
     17 O17        141.6417 145.4861 165.6679 O.2            1 RES1               0.0000
     18 H18        135.9427 144.2105 167.2372 H              1 RES1               0.0000
     19 H19        136.9864 143.5108 168.4876 H              1 RES1               0.0000
     20 H20        136.1776 141.8495 167.2385 H              1 RES1               0.0000
     21 H21        138.7589 143.0613 164.0436 H              1 RES1               0.0000
     22 H22        141.2944 143.5182 167.1159 H              1 RES1               0.0000
     23 H23        139.4520 146.3102 164.8118 H              1 RES1               0.0000
     24 H24        136.4555 145.8723 168.9957 H              1 RES1               0.0000
     25 H25        138.1824 145.6862 168.6991 H              1 RES1               0.0000
     26 H26        137.1449 146.3817 167.4562 H              1 RES1               0.0000
     27 H27        135.4493 139.9212 165.9059 H              1 RES1               0.0000
     28 H28        138.0210 141.1298 162.7269 H              1 RES1               0.0000
     29 H29        136.3655 139.5530 163.6472 H              1 RES1               0.0000
@<TRIPOS>BOND
    1    1    2 1     
    2    1    3 1     
    3    1    4 1     
    4    1    5 1     
    5    2    6 ar    
    6    2    7 ar    
    7    3    8 1     
    8    3    9 2     
    9    4   10 1     
   10    4   11 2     
   11    5   12 1     
   12    5   18 1     
   13    5   19 1     
   14    6   13 ar    
   15    6   20 1     
   16    7   14 ar    
   17    7   21 1     
   18    8   15 1     
   19    8   22 1     
   20   10   15 1     
   21   10   23 1     
   22   12   24 1     
   23   12   25 1     
   24   12   26 1     
   25   13   16 ar    
   26   13   27 1     
   27   14   16 ar    
   28   14   28 1     
   29   15   17 2     
   30   16   29 1     
@<TRIPOS>SUBSTRUCTURE
      1 RES1           1
@<TRIPOS>SET
DONOR_HYDROGENS      STATIC     ATOMS    <user>   **** ""
2 22 23
ATOM$RED        STATIC     ATOMS    COLORGROUP SYSTEM
2 22 23
@<TRIPOS>COMMENT
> <Gold.Version>
2022.3.0

> <Gold.Id.Protein>
unknown|7rmi_cavity_clean|pdb

> <Gold.Protein.RotatedTorsions>
[  882  862  863  864 ] final  124.62 input   59.67 | X-H torsion
[ 4344 4325 4326 4327 ] final -166.80 input   58.17 | X-H torsion
[ 1839 1834 1833 1830 ] final   -6.84 input   59.99 | X-H torsion
[  114  103  104  105 ] final  172.12 input  112.99 | X-H torsion
[  166  159  158  157 ] final    3.42 input   59.97 | X-H torsion
[ 4684 4679 4678 4675 ] final    6.33 input   59.98 | X-H torsion
[ 8046 8035 8034 8033 ] final   88.42 input   59.99 | X-H torsion
[ 2742 2733 2732 2730 ] final  106.36 input   60.00 | X-H torsion
[ 3268 3259 3258 3256 ] final  143.86 input   59.98 | X-H torsion
[  210  204  203  201 ] final -126.93 input   60.02 | X-H torsion
[ 1184 1170 1171 1172 ] final   96.55 input   67.97 | X-H torsion
[  241  225  226  227 ] final   48.34 input   51.53 | X-H torsion
[ 2774 2765 2764 2762 ] final  114.77 input   60.03 | X-H torsion
[ 3932 3927 3928 3929 ] final  171.57 input   88.25 | X-H torsion
[  295  288  286  283 ] final  175.85 input   60.03 | X-H torsion
[  297  289  290  291 ] final   -6.27 input  115.34 | X-H torsion
[ 4755 4748 4746 4743 ] final   11.93 input   60.02 | X-H torsion
[ 1228 1222 1220 1217 ] final  134.05 input   59.96 | X-H torsion
[   74   64   65   66 ] final  -84.80 input  112.25 | X-H torsion
[ 3990 3972 3973 3974 ] final -104.51 input   60.58 | X-H torsion
[ 1778 1767 1768 1769 ] final  119.92 input  110.17 | X-H torsion
[  348  334  335  336 ] final  163.58 input   81.54 | X-H torsion
[ 4022 4013 4012 4010 ] final  159.68 input   60.01 | X-H torsion
[ 1809 1802 1800 1797 ] final  168.61 input   60.00 | X-H torsion
[ 14302  865  864  863 ] final   32.26 input   -0.00 | X-H torsion
[ 14307 4328 4327 4326 ] final  104.37 input   -0.00 | X-H torsion
[ 14336  106  105  104 ] final  -23.25 input    0.00 | X-H torsion
[ 14422 1173 1172 1171 ] final  -75.67 input   -0.00 | X-H torsion
[ 14429  228  227  226 ] final  -55.64 input    0.00 | X-H torsion
[ 14438 3930 3929 3928 ] final   35.42 input   -0.00 | X-H torsion
[ 14453  292  291  290 ] final -116.58 input    0.00 | X-H torsion
[ 14470   67   66   65 ] final   77.49 input   -0.00 | X-H torsion
[ 14478 3975 3974 3973 ] final   92.91 input   -0.00 | X-H torsion
[ 14485 1770 1769 1768 ] final  -69.64 input   -0.00 | X-H torsion
[ 14496  337  336  335 ] final -115.12 input   -0.00 | X-H torsion

> <Gold.Protein.ActiveResidues>
 GLU27   LEU30   GLN31   ASP33   LYS34   GLN35   VAL36   TYR37   ARG38   THR40  
 HIS41   ARG42   GLU209  HIS220  PHE222  GLN236  ASN239  ASP240  VAL241  THR242 
 ARG280  TRP281  LEU282  ARG283  THR284  ILE285  SER286  VAL287  ILE288  GLY355 
 ARG356  HIS357  TYR358  CYS359  TYR360  ASP381  ILE382  ILE383  GLN385  MET386 
 ASN387  LEU388  ARG389  GLU390  TYR391  VAL394  ALA56   LYS57   ILE58   TYR59  
 ALA60   MET61   LEU79   ILE80   ILE81   TRP82   ILE93   SER98   TRP99   VAL100 
 MET101  THR102  CYS103  GLY310  HIS311  ASP312  ASN313  TRP332  ASP333  SER334 
 PHE335  LYS337 

> <Gold.Protein.RotatedAtoms>
  114.4117  152.7178  181.3993 H   0  0  0  0  0  0  0  0  0  0  0  0  # atno 74   bound_to 64  
  108.8718  133.7203   96.9560 H   0  0  0  0  0  0  0  0  0  0  0  0  # atno 114  bound_to 103 
  145.2362  138.6618  141.1160 H   0  0  0  0  0  0  0  0  0  0  0  0  # atno 166  bound_to 159 
  144.1478  138.8508  142.3519 H   0  0  0  0  0  0  0  0  0  0  0  0  # atno 167  bound_to 159 
  144.0477  139.8117  141.0049 H   0  0  0  0  0  0  0  0  0  0  0  0  # atno 168  bound_to 159 
  143.9986  133.4872  149.6715 H   0  0  0  0  0  0  0  0  0  0  0  0  # atno 210  bound_to 204 
  131.0679  113.1379  179.5805 H   0  0  0  0  0  0  0  0  0  0  0  0  # atno 241  bound_to 225 
  153.4391  130.2476  147.3507 H   0  0  0  0  0  0  0  0  0  0  0  0  # atno 295  bound_to 288 
  114.6392  136.3395  110.1237 H   0  0  0  0  0  0  0  0  0  0  0  0  # atno 297  bound_to 289 
  114.4508  158.2213  159.5950 H   0  0  0  0  0  0  0  0  0  0  0  0  # atno 348  bound_to 334 
  130.7768  143.6970  184.3760 H   0  0  0  0  0  0  0  0  0  0  0  0  # atno 882  bound_to 862 
  130.5227  158.0008  180.0754 H   0  0  0  0  0  0  0  0  0  0  0  0  # atno 1184 bound_to 1170
  144.8279  125.9637  148.7638 H   0  0  0  0  0  0  0  0  0  0  0  0  # atno 1228 bound_to 1222
  125.1797  160.3140  169.3896 H   0  0  0  0  0  0  0  0  0  0  0  0  # atno 1778 bound_to 1767
  131.8830  128.7271  151.8680 H   0  0  0  0  0  0  0  0  0  0  0  0  # atno 1809 bound_to 1802
  138.4644  120.3879  150.5549 H   0  0  0  0  0  0  0  0  0  0  0  0  # atno 1839 bound_to 1834
  129.2941  117.3324  144.6829 H   0  0  0  0  0  0  0  0  0  0  0  0  # atno 2742 bound_to 2733
  137.1010  116.4111  145.5783 H   0  0  0  0  0  0  0  0  0  0  0  0  # atno 2774 bound_to 2765
  139.4204  129.7720  135.5779 H   0  0  0  0  0  0  0  0  0  0  0  0  # atno 3268 bound_to 3259
  113.8813  116.9652  167.5665 H   0  0  0  0  0  0  0  0  0  0  0  0  # atno 3932 bound_to 3927
  119.2933  114.3697  167.1238 H   0  0  0  0  0  0  0  0  0  0  0  0  # atno 3990 bound_to 3972
  138.2527  137.1618  165.0251 H   0  0  0  0  0  0  0  0  0  0  0  0  # atno 4022 bound_to 4013
  116.2961  120.9226  180.8459 H   0  0  0  0  0  0  0  0  0  0  0  0  # atno 4344 bound_to 4325
  148.3694  135.7676  156.1994 H   0  0  0  0  0  0  0  0  0  0  0  0  # atno 4684 bound_to 4679
  143.5837  144.9942  166.6979 H   0  0  0  0  0  0  0  0  0  0  0  0  # atno 4755 bound_to 4748
  132.2064  146.7417  148.8841 H   0  0  0  0  0  0  0  0  0  0  0  0  # atno 8046 bound_to 8035
  132.9184  147.6802  147.7182 H   0  0  0  0  0  0  0  0  0  0  0  0  # atno 8047 bound_to 8035
  133.4050  147.8099  149.2979 H   0  0  0  0  0  0  0  0  0  0  0  0  # atno 8048 bound_to 8035
  130.3095  142.2144  185.1832 LP  0  0  0  0  0  0  0  0  0  0  0  0  # atno 14301 bound_to 862 
  130.1599  141.6695  182.2705 LP  0  0  0  0  0  0  0  0  0  0  0  0  # atno 14302 bound_to 865 
  128.7863  140.9690  181.4815 LP  0  0  0  0  0  0  0  0  0  0  0  0  # atno 14303 bound_to 865 
  116.4551  119.9525  182.2976 LP  0  0  0  0  0  0  0  0  0  0  0  0  # atno 14306 bound_to 4325
  116.7231  117.6625  183.2383 LP  0  0  0  0  0  0  0  0  0  0  0  0  # atno 14307 bound_to 4328
  118.3529  117.6900  182.6528 LP  0  0  0  0  0  0  0  0  0  0  0  0  # atno 14308 bound_to 4328
  137.7810  120.1982  149.0904 LP  0  0  0  0  0  0  0  0  0  0  0  0  # atno 14311 bound_to 1834
  138.3865  118.9068  149.8855 LP  0  0  0  0  0  0  0  0  0  0  0  0  # atno 14312 bound_to 1834
  108.8419  135.0667   98.0681 LP  0  0  0  0  0  0  0  0  0  0  0  0  # atno 14335 bound_to 103 
  111.7752  133.7496  100.4666 LP  0  0  0  0  0  0  0  0  0  0  0  0  # atno 14336 bound_to 106 
  112.5227  135.3120  100.4766 LP  0  0  0  0  0  0  0  0  0  0  0  0  # atno 14337 bound_to 106 
  148.1683  134.1533  156.1462 LP  0  0  0  0  0  0  0  0  0  0  0  0  # atno 14376 bound_to 4679
  148.9645  134.9197  154.9439 LP  0  0  0  0  0  0  0  0  0  0  0  0  # atno 14377 bound_to 4679
  129.3076  115.7438  144.3312 LP  0  0  0  0  0  0  0  0  0  0  0  0  # atno 14397 bound_to 2733
  130.2895  116.7698  143.5252 LP  0  0  0  0  0  0  0  0  0  0  0  0  # atno 14398 bound_to 2733
  138.7780  131.1682  135.0430 LP  0  0  0  0  0  0  0  0  0  0  0  0  # atno 14401 bound_to 3259
  139.5300  130.1601  134.0014 LP  0  0  0  0  0  0  0  0  0  0  0  0  # atno 14402 bound_to 3259
  143.9294  134.9799  150.3166 LP  0  0  0  0  0  0  0  0  0  0  0  0  # atno 14409 bound_to 204 
  144.8341  133.8213  151.0277 LP  0  0  0  0  0  0  0  0  0  0  0  0  # atno 14410 bound_to 204 
  131.6253  156.6468  180.2043 LP  0  0  0  0  0  0  0  0  0  0  0  0  # atno 14421 bound_to 1170
  128.2003  154.5827  182.5831 LP  0  0  0  0  0  0  0  0  0  0  0  0  # atno 14422 bound_to 1173
  127.1159  155.5188  181.6095 LP  0  0  0  0  0  0  0  0  0  0  0  0  # atno 14423 bound_to 1173
  129.8090  114.0289  180.4058 LP  0  0  0  0  0  0  0  0  0  0  0  0  # atno 14428 bound_to 225 
  133.2167  112.1737  180.2197 LP  0  0  0  0  0  0  0  0  0  0  0  0  # atno 14429 bound_to 228 
  133.8951  113.6167  180.8960 LP  0  0  0  0  0  0  0  0  0  0  0  0  # atno 14430 bound_to 228 
  136.5387  115.0102  144.9703 LP  0  0  0  0  0  0  0  0  0  0  0  0  # atno 14433 bound_to 2765
  138.0258  115.5441  144.5578 LP  0  0  0  0  0  0  0  0  0  0  0  0  # atno 14434 bound_to 2765
  115.5257  116.5548  167.9981 LP  0  0  0  0  0  0  0  0  0  0  0  0  # atno 14437 bound_to 3927
  115.5265  112.8903  165.9954 LP  0  0  0  0  0  0  0  0  0  0  0  0  # atno 14438 bound_to 3930
  117.0846  113.1402  166.7094 LP  0  0  0  0  0  0  0  0  0  0  0  0  # atno 14439 bound_to 3930
  152.6977  130.2443  145.9022 LP  0  0  0  0  0  0  0  0  0  0  0  0  # atno 14450 bound_to 288 
  153.3593  128.8707  146.4872 LP  0  0  0  0  0  0  0  0  0  0  0  0  # atno 14451 bound_to 288 
  114.1725  137.6584  109.0779 LP  0  0  0  0  0  0  0  0  0  0  0  0  # atno 14452 bound_to 289 
  114.7985  137.2088  113.9230 LP  0  0  0  0  0  0  0  0  0  0  0  0  # atno 14453 bound_to 292 
  113.4459  138.2897  113.8772 LP  0  0  0  0  0  0  0  0  0  0  0  0  # atno 14454 bound_to 292 
  144.7687  144.8071  167.7975 LP  0  0  0  0  0  0  0  0  0  0  0  0  # atno 14459 bound_to 4748
  143.2391  144.3629  168.1577 LP  0  0  0  0  0  0  0  0  0  0  0  0  # atno 14460 bound_to 4748
  143.4519  126.7175  149.1968 LP  0  0  0  0  0  0  0  0  0  0  0  0  # atno 14463 bound_to 1222
  143.5654  125.9943  147.7371 LP  0  0  0  0  0  0  0  0  0  0  0  0  # atno 14464 bound_to 1222
  114.9315  151.5724  180.1885 LP  0  0  0  0  0  0  0  0  0  0  0  0  # atno 14469 bound_to 64  
  115.3565  155.9914  178.2591 LP  0  0  0  0  0  0  0  0  0  0  0  0  # atno 14470 bound_to 67  
  113.9562  156.0939  179.2733 LP  0  0  0  0  0  0  0  0  0  0  0  0  # atno 14471 bound_to 67  
  118.3515  112.9094  166.8969 LP  0  0  0  0  0  0  0  0  0  0  0  0  # atno 14477 bound_to 3972
  120.5426  111.0589  166.6311 LP  0  0  0  0  0  0  0  0  0  0  0  0  # atno 14478 bound_to 3975
  119.8931  110.1301  167.9409 LP  0  0  0  0  0  0  0  0  0  0  0  0  # atno 14479 bound_to 3975
  125.3635  158.7350  170.1132 LP  0  0  0  0  0  0  0  0  0  0  0  0  # atno 14484 bound_to 1767
  122.6244  156.3873  169.4341 LP  0  0  0  0  0  0  0  0  0  0  0  0  # atno 14485 bound_to 1770
  121.7031  156.8567  168.0446 LP  0  0  0  0  0  0  0  0  0  0  0  0  # atno 14486 bound_to 1770
  115.9182  159.0315  160.0937 LP  0  0  0  0  0  0  0  0  0  0  0  0  # atno 14495 bound_to 334 
  118.1433  159.4139  157.1782 LP  0  0  0  0  0  0  0  0  0  0  0  0  # atno 14496 bound_to 337 
  117.4752  159.9558  158.6815 LP  0  0  0  0  0  0  0  0  0  0  0  0  # atno 14497 bound_to 337 
  138.0008  136.0522  163.8618 LP  0  0  0  0  0  0  0  0  0  0  0  0  # atno 14500 bound_to 4013
  136.9697  137.3066  164.0347 LP  0  0  0  0  0  0  0  0  0  0  0  0  # atno 14501 bound_to 4013
  131.3117  127.5305  152.8119 LP  0  0  0  0  0  0  0  0  0  0  0  0  # atno 14506 bound_to 1802
  130.9216  127.5808  151.2270 LP  0  0  0  0  0  0  0  0  0  0  0  0  # atno 14507 bound_to 1802

> <Gold.Score>
     Fitness  S(hb_ext) S(vdw_ext)  S(hb_int)    S(int)      intcor
     35.98       1.77      25.39       0.00      -0.70      -0.76

> <Gold.Goldscore.Fitness>
35.9751

> <Gold.Goldscore.Internal.Vdw>
-0.7407

> <Gold.Goldscore.Internal.Torsion>
-0.7274

> <Gold.Goldscore.External.Vdw>
25.3856

> <Gold.Goldscore.Internal.HBond>
0.0000

> <Gold.Goldscore.External.HBond>
1.7731

> <Gold.Goldscore.Internal.Correction>
-0.7650

> <Gold.Goldscore.Hbonds>
donor molecule, donor type, donor heavy atom, donor atom, acceptor molecule, acceptor atom, score
      P1  H  4748  4755       L1    17  0.09
      P1  H  4756  4762       L1    17  0.67
      L1  H    10    23       P1  4036  0.13

> <Gold.Goldscore.Internal.Vdw.Weighted>
-0.7407

> <Gold.Goldscore.Internal.Torsion.Weighted>
-0.7274

> <Gold.Goldscore.External.Vdw.Weighted>
34.9052

> <Gold.Goldscore.Internal.HBond.Weighted>
0.0000

> <Gold.Goldscore.External.HBond.Weighted>
1.7731

> <Gold.Goldscore.Internal.Correction.Weighted>
-0.7650

> <Gold.Rescore>
     Score     S(PLP)   S(hbond)     S(cho)   S(metal)  DE(clash)   DE(tors)     intcor
     28.42     -26.21       1.36       0.00       0.00       0.10       0.88       ----

> <Gold.PLP.Fitness>
28.4217

> <Gold.PLP.PLP>
-26.2091

> <Gold.PLP.part.hbond>
-1.8280

> <Gold.PLP.part.metal>
0.0000

> <Gold.PLP.part.buried>
-5.5430

> <Gold.PLP.part.nonpolar>
-18.6922

> <Gold.PLP.part.repulsive>
0.6699

> <Gold.PLP.ligand.clash>
0.1047

> <Gold.PLP.ligand.torsion>
0.8776

> <Gold.PLP.Chemscore.Hbond>
1.3575

> <Gold.PLP.Chemscore.CHOScore>
0.0000

> <Gold.PLP.Chemscore.Metal>
0.0000

> <Gold.Chemscore.Hbonds>
donor molecule, donor type, donor heavy atom, donor atom, acceptor molecule, acceptor atom, score
      P1  H  4748  4755       L1    17  0.48
      P1  H  4756  4762       L1    17  0.59

> <Gold.PLP.Chemscore.Internal.Correction>
   9.000000E+99

