#       Name:                CT1002167954
#       Creating user name   hitesit
#       Creation time:       Sun Apr 16 20:20:51 2023


#       File generated by GOLD software.
#

@<TRIPOS>MOLECULE
CT1002167954|ligand_prepared|mol2|1|dock4
    29    30     1
SMALL
NO_CHARGES


@<TRIPOS>ATOM
      1 C1         137.4802 141.9853 165.7982 C.3            1 RES1               0.0000
      2 C2         136.6227 140.9485 165.0443 C.ar           1 RES1               0.0000
      3 C3         136.7816 143.3301 165.6200 C.2            1 RES1               0.0000
      4 C4         137.5524 141.5085 167.2446 C.2            1 RES1               0.0000
      5 C5         138.9259 142.1081 165.2630 C.3            1 RES1               0.0000
      6 C6         135.6591 140.2026 165.7165 C.ar           1 RES1               0.0000
      7 C7         136.7815 140.7290 163.6786 C.ar           1 RES1               0.0000
      8 N8         136.1175 143.8444 166.6944 N.am           1 RES1               0.0000
      9 O9         136.7800 143.9114 164.5419 O.2            1 RES1               0.0000
     10 N10        136.9559 142.2816 168.2060 N.am           1 RES1               0.0000
     11 O11        138.1060 140.4619 167.5584 O.2            1 RES1               0.0000
     12 C12        139.8217 142.9940 166.1144 C.3            1 RES1               0.0000
     13 C13        134.8803 139.2732 165.0472 C.ar           1 RES1               0.0000
     14 C14        136.0019 139.7988 163.0112 C.ar           1 RES1               0.0000
     15 C15        136.2152 143.4122 167.9927 C.2            1 RES1               0.0000
     16 C16        135.0509 139.0710 163.6942 C.ar           1 RES1               0.0000
     17 O17        135.6638 144.0229 168.9038 O.2            1 RES1               0.0000
     18 H18        139.3688 141.1060 165.2091 H              1 RES1               0.0000
     19 H19        138.8922 142.5150 164.2448 H              1 RES1               0.0000
     20 H20        135.5123 140.3463 166.7818 H              1 RES1               0.0000
     21 H21        137.5243 141.2894 163.1210 H              1 RES1               0.0000
     22 H22        135.4902 144.6222 166.5162 H              1 RES1               0.0000
     23 H23        137.0751 141.9871 169.1700 H              1 RES1               0.0000
     24 H24        140.8241 143.0459 165.6947 H              1 RES1               0.0000
     25 H25        139.4245 144.0054 166.1690 H              1 RES1               0.0000
     26 H26        139.8983 142.6048 167.1276 H              1 RES1               0.0000
     27 H27        134.1342 138.7019 165.5895 H              1 RES1               0.0000
     28 H28        136.1399 139.6425 161.9464 H              1 RES1               0.0000
     29 H29        134.4404 138.3430 163.1700 H              1 RES1               0.0000
@<TRIPOS>BOND
    1    1    2 1     
    2    1    3 1     
    3    1    4 1     
    4    1    5 1     
    5    2    6 ar    
    6    2    7 ar    
    7    3    8 1     
    8    3    9 2     
    9    4   10 1     
   10    4   11 2     
   11    5   12 1     
   12    5   18 1     
   13    5   19 1     
   14    6   13 ar    
   15    6   20 1     
   16    7   14 ar    
   17    7   21 1     
   18    8   15 1     
   19    8   22 1     
   20   10   15 1     
   21   10   23 1     
   22   12   24 1     
   23   12   25 1     
   24   12   26 1     
   25   13   16 ar    
   26   13   27 1     
   27   14   16 ar    
   28   14   28 1     
   29   15   17 2     
   30   16   29 1     
@<TRIPOS>SUBSTRUCTURE
      1 RES1           1
@<TRIPOS>SET
DONOR_HYDROGENS      STATIC     ATOMS    <user>   **** ""
2 22 23
ATOM$RED        STATIC     ATOMS    COLORGROUP SYSTEM
2 22 23
@<TRIPOS>COMMENT
> <Gold.Version>
2022.3.0

> <Gold.Id.Protein>
unknown|7rmi_cavity_clean|pdb

> <Gold.Protein.RotatedTorsions>
[  882  862  863  864 ] final  -37.97 input   59.67 | X-H torsion
[ 4344 4325 4326 4327 ] final   -7.75 input   58.17 | X-H torsion
[ 1839 1834 1833 1830 ] final  -29.61 input   59.99 | X-H torsion
[  114  103  104  105 ] final  -84.78 input  112.99 | X-H torsion
[  166  159  158  157 ] final   20.92 input   59.97 | X-H torsion
[ 4684 4679 4678 4675 ] final  -59.28 input   59.98 | X-H torsion
[ 8046 8035 8034 8033 ] final  -67.62 input   59.99 | X-H torsion
[ 2742 2733 2732 2730 ] final  156.45 input   60.00 | X-H torsion
[ 3268 3259 3258 3256 ] final  -38.77 input   59.98 | X-H torsion
[  210  204  203  201 ] final  125.16 input   60.02 | X-H torsion
[ 1184 1170 1171 1172 ] final -169.46 input   67.97 | X-H torsion
[  241  225  226  227 ] final  107.47 input   51.53 | X-H torsion
[ 2774 2765 2764 2762 ] final  120.39 input   60.03 | X-H torsion
[ 3932 3927 3928 3929 ] final  -20.09 input   88.25 | X-H torsion
[  295  288  286  283 ] final   17.96 input   60.03 | X-H torsion
[  297  289  290  291 ] final  -85.33 input  115.34 | X-H torsion
[ 4755 4748 4746 4743 ] final   82.42 input   60.02 | X-H torsion
[ 1228 1222 1220 1217 ] final  -18.51 input   59.96 | X-H torsion
[   74   64   65   66 ] final   60.29 input  112.25 | X-H torsion
[ 3990 3972 3973 3974 ] final   42.00 input   60.58 | X-H torsion
[ 1778 1767 1768 1769 ] final  -90.07 input  110.17 | X-H torsion
[  348  334  335  336 ] final -134.17 input   81.54 | X-H torsion
[ 4022 4013 4012 4010 ] final -142.92 input   60.01 | X-H torsion
[ 1809 1802 1800 1797 ] final  -72.78 input   60.00 | X-H torsion
[ 14302  865  864  863 ] final -176.32 input   -0.00 | X-H torsion
[ 14307 4328 4327 4326 ] final   44.92 input   -0.00 | X-H torsion
[ 14336  106  105  104 ] final  111.67 input    0.00 | X-H torsion
[ 14422 1173 1172 1171 ] final  -11.77 input   -0.00 | X-H torsion
[ 14429  228  227  226 ] final -174.01 input    0.00 | X-H torsion
[ 14438 3930 3929 3928 ] final  -19.68 input   -0.00 | X-H torsion
[ 14453  292  291  290 ] final  -89.83 input    0.00 | X-H torsion
[ 14470   67   66   65 ] final  -77.07 input   -0.00 | X-H torsion
[ 14478 3975 3974 3973 ] final   63.09 input   -0.00 | X-H torsion
[ 14485 1770 1769 1768 ] final  -20.81 input   -0.00 | X-H torsion
[ 14496  337  336  335 ] final  -98.34 input   -0.00 | X-H torsion

> <Gold.Protein.ActiveResidues>
 GLU27   LEU30   GLN31   ASP33   LYS34   GLN35   VAL36   TYR37   ARG38   THR40  
 HIS41   ARG42   GLU209  HIS220  PHE222  GLN236  ASN239  ASP240  VAL241  THR242 
 ARG280  TRP281  LEU282  ARG283  THR284  ILE285  SER286  VAL287  ILE288  GLY355 
 ARG356  HIS357  TYR358  CYS359  TYR360  ASP381  ILE382  ILE383  GLN385  MET386 
 ASN387  LEU388  ARG389  GLU390  TYR391  VAL394  ALA56   LYS57   ILE58   TYR59  
 ALA60   MET61   LEU79   ILE80   ILE81   TRP82   ILE93   SER98   TRP99   VAL100 
 MET101  THR102  CYS103  GLY310  HIS311  ASP312  ASN313  TRP332  ASP333  SER334 
 PHE335  LYS337 

> <Gold.Protein.RotatedAtoms>
  114.4661  151.7506  180.0270 H   0  0  0  0  0  0  0  0  0  0  0  0  # atno 74   bound_to 64  
  108.5088  134.0487   98.2479 H   0  0  0  0  0  0  0  0  0  0  0  0  # atno 114  bound_to 103 
  145.2186  138.5156  141.3671 H   0  0  0  0  0  0  0  0  0  0  0  0  # atno 166  bound_to 159 
  143.9567  139.0622  142.2928 H   0  0  0  0  0  0  0  0  0  0  0  0  # atno 167  bound_to 159 
  144.2566  139.7464  140.8130 H   0  0  0  0  0  0  0  0  0  0  0  0  # atno 168  bound_to 159 
  143.8396  134.9145  150.1528 H   0  0  0  0  0  0  0  0  0  0  0  0  # atno 210  bound_to 204 
  130.2659  112.7918  179.6470 H   0  0  0  0  0  0  0  0  0  0  0  0  # atno 241  bound_to 225 
  152.7680  129.6592  145.7446 H   0  0  0  0  0  0  0  0  0  0  0  0  # atno 295  bound_to 288 
  115.2063  137.2692  109.8494 H   0  0  0  0  0  0  0  0  0  0  0  0  # atno 297  bound_to 289 
  114.9352  157.9240  160.3147 H   0  0  0  0  0  0  0  0  0  0  0  0  # atno 348  bound_to 334 
  130.3742  142.0825  184.9588 H   0  0  0  0  0  0  0  0  0  0  0  0  # atno 882  bound_to 862 
  131.5920  157.7055  180.7567 H   0  0  0  0  0  0  0  0  0  0  0  0  # atno 1184 bound_to 1170
  143.1405  126.6448  148.7780 H   0  0  0  0  0  0  0  0  0  0  0  0  # atno 1228 bound_to 1222
  125.2269  158.9901  170.4607 H   0  0  0  0  0  0  0  0  0  0  0  0  # atno 1778 bound_to 1767
  130.9342  127.5990  151.2187 H   0  0  0  0  0  0  0  0  0  0  0  0  # atno 1809 bound_to 1802
  138.3102  120.6312  150.3232 H   0  0  0  0  0  0  0  0  0  0  0  0  # atno 1839 bound_to 1834
  129.8463  117.5271  144.1490 H   0  0  0  0  0  0  0  0  0  0  0  0  # atno 2742 bound_to 2733
  137.1852  116.4375  145.5525 H   0  0  0  0  0  0  0  0  0  0  0  0  # atno 2774 bound_to 2765
  139.0828  130.9298  134.1462 H   0  0  0  0  0  0  0  0  0  0  0  0  # atno 3268 bound_to 3259
  115.4705  116.4277  168.1126 H   0  0  0  0  0  0  0  0  0  0  0  0  # atno 3932 bound_to 3927
  118.8002  112.7885  166.6946 H   0  0  0  0  0  0  0  0  0  0  0  0  # atno 3990 bound_to 3972
  137.5197  137.6199  164.7779 H   0  0  0  0  0  0  0  0  0  0  0  0  # atno 4022 bound_to 4013
  116.1609  119.8401  182.2275 H   0  0  0  0  0  0  0  0  0  0  0  0  # atno 4344 bound_to 4325
  148.0311  134.8863  156.5722 H   0  0  0  0  0  0  0  0  0  0  0  0  # atno 4684 bound_to 4679
  142.9434  144.5722  167.4592 H   0  0  0  0  0  0  0  0  0  0  0  0  # atno 4755 bound_to 4748
  133.5389  148.0525  148.7742 H   0  0  0  0  0  0  0  0  0  0  0  0  # atno 8046 bound_to 8035
  132.4940  146.9134  149.3723 H   0  0  0  0  0  0  0  0  0  0  0  0  # atno 8047 bound_to 8035
  132.4968  147.2661  147.7523 H   0  0  0  0  0  0  0  0  0  0  0  0  # atno 8048 bound_to 8035
  130.6975  143.7706  184.6214 LP  0  0  0  0  0  0  0  0  0  0  0  0  # atno 14301 bound_to 862 
  128.9442  140.6514  181.7203 LP  0  0  0  0  0  0  0  0  0  0  0  0  # atno 14302 bound_to 865 
  130.0020  141.9871  182.0317 LP  0  0  0  0  0  0  0  0  0  0  0  0  # atno 14303 bound_to 865 
  116.5846  120.9899  180.9736 LP  0  0  0  0  0  0  0  0  0  0  0  0  # atno 14306 bound_to 4325
  117.1110  118.4149  183.0939 LP  0  0  0  0  0  0  0  0  0  0  0  0  # atno 14307 bound_to 4328
  117.9651  116.9376  182.7973 LP  0  0  0  0  0  0  0  0  0  0  0  0  # atno 14308 bound_to 4328
  137.7962  119.8378  148.9987 LP  0  0  0  0  0  0  0  0  0  0  0  0  # atno 14311 bound_to 1834
  138.5266  119.0223  150.2104 LP  0  0  0  0  0  0  0  0  0  0  0  0  # atno 14312 bound_to 1834
  109.1978  134.7448   96.8017 LP  0  0  0  0  0  0  0  0  0  0  0  0  # atno 14335 bound_to 103 
  112.8569  134.8723  100.1081 LP  0  0  0  0  0  0  0  0  0  0  0  0  # atno 14336 bound_to 106 
  111.4409  134.1892  100.8350 LP  0  0  0  0  0  0  0  0  0  0  0  0  # atno 14337 bound_to 106 
  148.6773  134.1715  155.2605 LP  0  0  0  0  0  0  0  0  0  0  0  0  # atno 14376 bound_to 4679
  148.7960  135.7886  155.4543 LP  0  0  0  0  0  0  0  0  0  0  0  0  # atno 14377 bound_to 4679
  128.9804  116.3082  144.7910 LP  0  0  0  0  0  0  0  0  0  0  0  0  # atno 14397 bound_to 2733
  130.0604  116.0092  143.6033 LP  0  0  0  0  0  0  0  0  0  0  0  0  # atno 14398 bound_to 2733
  139.7067  129.5540  134.7509 LP  0  0  0  0  0  0  0  0  0  0  0  0  # atno 14401 bound_to 3259
  138.9412  130.6085  135.7351 LP  0  0  0  0  0  0  0  0  0  0  0  0  # atno 14402 bound_to 3259
  144.8133  134.0083  151.0908 LP  0  0  0  0  0  0  0  0  0  0  0  0  # atno 14409 bound_to 204 
  144.1102  133.3561  149.7690 LP  0  0  0  0  0  0  0  0  0  0  0  0  # atno 14410 bound_to 204 
  130.5914  156.9323  179.5455 LP  0  0  0  0  0  0  0  0  0  0  0  0  # atno 14421 bound_to 1170
  128.0258  155.4645  182.7624 LP  0  0  0  0  0  0  0  0  0  0  0  0  # atno 14422 bound_to 1173
  127.2903  154.6371  181.4302 LP  0  0  0  0  0  0  0  0  0  0  0  0  # atno 14423 bound_to 1173
  130.5874  114.3649  180.3412 LP  0  0  0  0  0  0  0  0  0  0  0  0  # atno 14428 bound_to 225 
  134.2210  112.8189  181.1073 LP  0  0  0  0  0  0  0  0  0  0  0  0  # atno 14429 bound_to 228 
  132.8909  112.9715  180.0084 LP  0  0  0  0  0  0  0  0  0  0  0  0  # atno 14430 bound_to 228 
  136.4895  115.0628  145.0285 LP  0  0  0  0  0  0  0  0  0  0  0  0  # atno 14433 bound_to 2765
  137.9902  115.4649  144.5256 LP  0  0  0  0  0  0  0  0  0  0  0  0  # atno 14434 bound_to 2765
  113.9806  117.0773  167.4671 LP  0  0  0  0  0  0  0  0  0  0  0  0  # atno 14437 bound_to 3927
  115.5630  112.9505  166.7933 LP  0  0  0  0  0  0  0  0  0  0  0  0  # atno 14438 bound_to 3930
  117.0481  113.0800  165.9115 LP  0  0  0  0  0  0  0  0  0  0  0  0  # atno 14439 bound_to 3930
  153.5829  129.0668  147.0225 LP  0  0  0  0  0  0  0  0  0  0  0  0  # atno 14450 bound_to 288 
  153.1501  130.6409  146.9848 LP  0  0  0  0  0  0  0  0  0  0  0  0  # atno 14451 bound_to 288 
  113.6169  136.7475  109.3467 LP  0  0  0  0  0  0  0  0  0  0  0  0  # atno 14452 bound_to 289 
  114.9433  137.5304  113.7330 LP  0  0  0  0  0  0  0  0  0  0  0  0  # atno 14453 bound_to 292 
  113.3011  137.9681  114.0672 LP  0  0  0  0  0  0  0  0  0  0  0  0  # atno 14454 bound_to 292 
  144.3519  145.0962  166.8347 LP  0  0  0  0  0  0  0  0  0  0  0  0  # atno 14459 bound_to 4748
  144.3009  144.4988  168.3536 LP  0  0  0  0  0  0  0  0  0  0  0  0  # atno 14460 bound_to 4748
  144.0555  125.7965  147.7329 LP  0  0  0  0  0  0  0  0  0  0  0  0  # atno 14463 bound_to 1222
  144.6604  126.2298  149.1866 LP  0  0  0  0  0  0  0  0  0  0  0  0  # atno 14464 bound_to 1222
  114.8781  152.5231  181.5375 LP  0  0  0  0  0  0  0  0  0  0  0  0  # atno 14469 bound_to 64  
  114.2429  156.1049  179.5246 LP  0  0  0  0  0  0  0  0  0  0  0  0  # atno 14470 bound_to 67  
  115.0697  155.9804  178.0078 LP  0  0  0  0  0  0  0  0  0  0  0  0  # atno 14471 bound_to 67  
  118.8254  114.4293  167.3095 LP  0  0  0  0  0  0  0  0  0  0  0  0  # atno 14477 bound_to 3972
  120.1104  111.1667  166.6448 LP  0  0  0  0  0  0  0  0  0  0  0  0  # atno 14478 bound_to 3975
  120.3253  110.0223  167.9271 LP  0  0  0  0  0  0  0  0  0  0  0  0  # atno 14479 bound_to 3975
  125.3172  160.0333  169.0628 LP  0  0  0  0  0  0  0  0  0  0  0  0  # atno 14484 bound_to 1767
  122.1199  156.8780  169.5655 LP  0  0  0  0  0  0  0  0  0  0  0  0  # atno 14485 bound_to 1770
  122.2075  156.3660  167.9132 LP  0  0  0  0  0  0  0  0  0  0  0  0  # atno 14486 bound_to 1770
  115.4476  159.3203  159.3946 LP  0  0  0  0  0  0  0  0  0  0  0  0  # atno 14495 bound_to 334 
  117.9002  159.4217  157.1098 LP  0  0  0  0  0  0  0  0  0  0  0  0  # atno 14496 bound_to 337 
  117.7183  159.9480  158.7499 LP  0  0  0  0  0  0  0  0  0  0  0  0  # atno 14497 bound_to 337 
  138.5068  136.3459  164.5529 LP  0  0  0  0  0  0  0  0  0  0  0  0  # atno 14500 bound_to 4013
  137.2022  136.5514  163.5925 LP  0  0  0  0  0  0  0  0  0  0  0  0  # atno 14501 bound_to 4013
  131.8902  128.7324  151.8899 LP  0  0  0  0  0  0  0  0  0  0  0  0  # atno 14506 bound_to 1802
  131.2984  127.5146  152.8028 LP  0  0  0  0  0  0  0  0  0  0  0  0  # atno 14507 bound_to 1802

> <Gold.Score>
     Fitness  S(hb_ext) S(vdw_ext)  S(hb_int)    S(int)      intcor
     36.97       0.00      27.52       0.00      -0.88      -0.76

> <Gold.Goldscore.Fitness>
36.9674

> <Gold.Goldscore.Internal.Vdw>
-1.1804

> <Gold.Goldscore.Internal.Torsion>
-0.4541

> <Gold.Goldscore.External.Vdw>
27.5225

> <Gold.Goldscore.Internal.HBond>
0.0000

> <Gold.Goldscore.External.HBond>
0.0000

> <Gold.Goldscore.Internal.Correction>
-0.7585

> <Gold.Goldscore.Internal.Vdw.Weighted>
-1.1804

> <Gold.Goldscore.Internal.Torsion.Weighted>
-0.4541

> <Gold.Goldscore.External.Vdw.Weighted>
37.8434

> <Gold.Goldscore.Internal.HBond.Weighted>
0.0000

> <Gold.Goldscore.External.HBond.Weighted>
0.0000

> <Gold.Goldscore.Internal.Correction.Weighted>
-0.7585

> <Gold.Rescore>
     Score     S(PLP)   S(hbond)     S(cho)   S(metal)  DE(clash)   DE(tors)     intcor
     28.60     -30.83       0.00       0.00       0.00       1.79       0.22       ----

> <Gold.PLP.Fitness>
28.5967

> <Gold.PLP.PLP>
-30.8254

> <Gold.PLP.part.hbond>
-2.6156

> <Gold.PLP.part.metal>
0.0000

> <Gold.PLP.part.buried>
-4.4180

> <Gold.PLP.part.nonpolar>
-31.7435

> <Gold.PLP.part.repulsive>
7.1747

> <Gold.PLP.ligand.clash>
1.7893

> <Gold.PLP.ligand.torsion>
0.2197

> <Gold.PLP.Chemscore.Hbond>
0.0000

> <Gold.PLP.Chemscore.CHOScore>
0.0000

> <Gold.PLP.Chemscore.Metal>
0.0000

> <Gold.PLP.Chemscore.Internal.Correction>
   9.000000E+99

