#       Name:                CT1002167954
#       Creating user name   hitesit
#       Creation time:       Sun Apr 16 20:20:38 2023


#       File generated by GOLD software.
#

@<TRIPOS>MOLECULE
CT1002167954|ligand_prepared|mol2|1|dock3
    29    30     1
SMALL
NO_CHARGES


@<TRIPOS>ATOM
      1 C1         137.8146 145.6203 166.1026 C.3            1 RES1               0.0000
      2 C2         137.0098 146.6179 166.9604 C.ar           1 RES1               0.0000
      3 C3         138.3769 146.4193 164.9305 C.2            1 RES1               0.0000
      4 C4         138.8791 145.0300 167.0207 C.2            1 RES1               0.0000
      5 C5         136.9680 144.4543 165.5410 C.3            1 RES1               0.0000
      6 C6         137.1441 147.9893 166.7656 C.ar           1 RES1               0.0000
      7 C7         136.1288 146.1826 167.9468 C.ar           1 RES1               0.0000
      8 N8         139.7098 146.7075 164.9439 N.am           1 RES1               0.0000
      9 O9         137.6544 146.8244 164.0282 O.2            1 RES1               0.0000
     10 N10        140.1919 145.3093 166.7445 N.am           1 RES1               0.0000
     11 O11        138.5920 144.3392 167.9906 O.2            1 RES1               0.0000
     12 C12        137.7671 143.4590 164.7146 C.3            1 RES1               0.0000
     13 C13        136.4217 148.8929 167.5272 C.ar           1 RES1               0.0000
     14 C14        135.4075 147.0879 168.7075 C.ar           1 RES1               0.0000
     15 C15        140.6539 146.1465 165.7658 C.2            1 RES1               0.0000
     16 C16        135.5527 148.4429 168.4982 C.ar           1 RES1               0.0000
     17 O17        141.8474 146.3906 165.6140 O.2            1 RES1               0.0000
     18 H18        136.4999 143.9225 166.3785 H              1 RES1               0.0000
     19 H19        136.1666 144.8685 164.9168 H              1 RES1               0.0000
     20 H20        137.8251 148.3622 166.0077 H              1 RES1               0.0000
     21 H21        135.9993 145.1213 168.1297 H              1 RES1               0.0000
     22 H22        140.0346 147.4047 164.2816 H              1 RES1               0.0000
     23 H23        140.8893 144.8505 167.3219 H              1 RES1               0.0000
     24 H24        137.1257 142.6618 164.3449 H              1 RES1               0.0000
     25 H25        138.2262 143.9491 163.8585 H              1 RES1               0.0000
     26 H26        138.5575 143.0087 165.3115 H              1 RES1               0.0000
     27 H27        136.5406 149.9582 167.3595 H              1 RES1               0.0000
     28 H28        134.7251 146.7293 169.4710 H              1 RES1               0.0000
     29 H29        134.9866 149.1509 169.0944 H              1 RES1               0.0000
@<TRIPOS>BOND
    1    1    2 1     
    2    1    3 1     
    3    1    4 1     
    4    1    5 1     
    5    2    6 ar    
    6    2    7 ar    
    7    3    8 1     
    8    3    9 2     
    9    4   10 1     
   10    4   11 2     
   11    5   12 1     
   12    5   18 1     
   13    5   19 1     
   14    6   13 ar    
   15    6   20 1     
   16    7   14 ar    
   17    7   21 1     
   18    8   15 1     
   19    8   22 1     
   20   10   15 1     
   21   10   23 1     
   22   12   24 1     
   23   12   25 1     
   24   12   26 1     
   25   13   16 ar    
   26   13   27 1     
   27   14   16 ar    
   28   14   28 1     
   29   15   17 2     
   30   16   29 1     
@<TRIPOS>SUBSTRUCTURE
      1 RES1           1
@<TRIPOS>SET
DONOR_HYDROGENS      STATIC     ATOMS    <user>   **** ""
2 22 23
ATOM$RED        STATIC     ATOMS    COLORGROUP SYSTEM
2 22 23
@<TRIPOS>COMMENT
> <Gold.Version>
2022.3.0

> <Gold.Id.Protein>
unknown|7rmi_cavity_clean|pdb

> <Gold.Protein.RotatedTorsions>
[  882  862  863  864 ] final   -8.06 input   59.67 | X-H torsion
[ 4344 4325 4326 4327 ] final  -31.19 input   58.17 | X-H torsion
[ 1839 1834 1833 1830 ] final  107.96 input   59.99 | X-H torsion
[  114  103  104  105 ] final   84.94 input  112.99 | X-H torsion
[  166  159  158  157 ] final  122.48 input   59.97 | X-H torsion
[ 4684 4679 4678 4675 ] final -155.04 input   59.98 | X-H torsion
[ 8046 8035 8034 8033 ] final   33.71 input   59.99 | X-H torsion
[ 2742 2733 2732 2730 ] final  -23.02 input   60.00 | X-H torsion
[ 3268 3259 3258 3256 ] final -115.98 input   59.98 | X-H torsion
[  210  204  203  201 ] final   97.56 input   60.02 | X-H torsion
[ 1184 1170 1171 1172 ] final  -51.49 input   67.97 | X-H torsion
[  241  225  226  227 ] final  -53.89 input   51.53 | X-H torsion
[ 2774 2765 2764 2762 ] final   33.93 input   60.03 | X-H torsion
[ 3932 3927 3928 3929 ] final  -23.77 input   88.25 | X-H torsion
[  295  288  286  283 ] final   64.98 input   60.03 | X-H torsion
[  297  289  290  291 ] final  -66.43 input  115.34 | X-H torsion
[ 4755 4748 4746 4743 ] final   26.42 input   60.02 | X-H torsion
[ 1228 1222 1220 1217 ] final  117.07 input   59.96 | X-H torsion
[   74   64   65   66 ] final   52.32 input  112.25 | X-H torsion
[ 3990 3972 3973 3974 ] final  133.06 input   60.58 | X-H torsion
[ 1778 1767 1768 1769 ] final  106.10 input  110.17 | X-H torsion
[  348  334  335  336 ] final  133.47 input   81.54 | X-H torsion
[ 4022 4013 4012 4010 ] final   65.02 input   60.01 | X-H torsion
[ 1809 1802 1800 1797 ] final   84.60 input   60.00 | X-H torsion
[ 14302  865  864  863 ] final   -6.24 input   -0.00 | X-H torsion
[ 14307 4328 4327 4326 ] final  -99.11 input   -0.00 | X-H torsion
[ 14336  106  105  104 ] final  161.48 input    0.00 | X-H torsion
[ 14422 1173 1172 1171 ] final  125.87 input   -0.00 | X-H torsion
[ 14429  228  227  226 ] final -154.15 input    0.00 | X-H torsion
[ 14438 3930 3929 3928 ] final -141.41 input   -0.00 | X-H torsion
[ 14453  292  291  290 ] final  144.55 input    0.00 | X-H torsion
[ 14470   67   66   65 ] final -109.00 input   -0.00 | X-H torsion
[ 14478 3975 3974 3973 ] final   78.69 input   -0.00 | X-H torsion
[ 14485 1770 1769 1768 ] final  160.78 input   -0.00 | X-H torsion
[ 14496  337  336  335 ] final   59.02 input   -0.00 | X-H torsion

> <Gold.Protein.ActiveResidues>
 GLU27   LEU30   GLN31   ASP33   LYS34   GLN35   VAL36   TYR37   ARG38   THR40  
 HIS41   ARG42   GLU209  HIS220  PHE222  GLN236  ASN239  ASP240  VAL241  THR242 
 ARG280  TRP281  LEU282  ARG283  THR284  ILE285  SER286  VAL287  ILE288  GLY355 
 ARG356  HIS357  TYR358  CYS359  TYR360  ASP381  ILE382  ILE383  GLN385  MET386 
 ASN387  LEU388  ARG389  GLU390  TYR391  VAL394  ALA56   LYS57   ILE58   TYR59  
 ALA60   MET61   LEU79   ILE80   ILE81   TRP82   ILE93   SER98   TRP99   VAL100 
 MET101  THR102  CYS103  GLY310  HIS311  ASP312  ASN313  TRP332  ASP333  SER334 
 PHE335  LYS337 

> <Gold.Protein.RotatedAtoms>
  114.3638  151.8176  180.0304 H   0  0  0  0  0  0  0  0  0  0  0  0  # atno 74   bound_to 64  
  109.2106  134.8853   96.8715 H   0  0  0  0  0  0  0  0  0  0  0  0  # atno 114  bound_to 103 
  144.1590  138.8394  142.3528 H   0  0  0  0  0  0  0  0  0  0  0  0  # atno 166  bound_to 159 
  144.0373  139.8133  141.0168 H   0  0  0  0  0  0  0  0  0  0  0  0  # atno 167  bound_to 159 
  145.2355  138.6712  141.1038 H   0  0  0  0  0  0  0  0  0  0  0  0  # atno 168  bound_to 159 
  144.0737  134.9946  150.5249 H   0  0  0  0  0  0  0  0  0  0  0  0  # atno 210  bound_to 204 
  130.8564  114.3242  180.2568 H   0  0  0  0  0  0  0  0  0  0  0  0  # atno 241  bound_to 225 
  152.7128  130.3604  145.9955 H   0  0  0  0  0  0  0  0  0  0  0  0  # atno 295  bound_to 288 
  115.1905  137.0187  109.9940 H   0  0  0  0  0  0  0  0  0  0  0  0  # atno 297  bound_to 289 
  114.5039  158.5677  159.2957 H   0  0  0  0  0  0  0  0  0  0  0  0  # atno 348  bound_to 334 
  130.5680  142.0851  184.5413 H   0  0  0  0  0  0  0  0  0  0  0  0  # atno 882  bound_to 862 
  131.2956  156.4850  179.8903 H   0  0  0  0  0  0  0  0  0  0  0  0  # atno 1184 bound_to 1170
  144.7706  126.0962  148.9997 H   0  0  0  0  0  0  0  0  0  0  0  0  # atno 1228 bound_to 1222
  125.2430  160.2127  169.2142 H   0  0  0  0  0  0  0  0  0  0  0  0  # atno 1778 bound_to 1767
  131.6500  128.0000  152.8620 H   0  0  0  0  0  0  0  0  0  0  0  0  # atno 1809 bound_to 1802
  138.4178  118.9267  149.9624 H   0  0  0  0  0  0  0  0  0  0  0  0  # atno 1839 bound_to 1834
  129.4087  115.7084  144.2209 H   0  0  0  0  0  0  0  0  0  0  0  0  # atno 2742 bound_to 2733
  136.3611  115.4742  145.3575 H   0  0  0  0  0  0  0  0  0  0  0  0  # atno 2774 bound_to 2765
  139.6344  129.9002  134.1636 H   0  0  0  0  0  0  0  0  0  0  0  0  # atno 3268 bound_to 3259
  115.4392  116.3950  168.1471 H   0  0  0  0  0  0  0  0  0  0  0  0  # atno 3932 bound_to 3927
  117.9871  113.5322  167.3363 H   0  0  0  0  0  0  0  0  0  0  0  0  # atno 3990 bound_to 3972
  138.2907  136.0989  164.1511 H   0  0  0  0  0  0  0  0  0  0  0  0  # atno 4022 bound_to 4013
  115.8521  119.8580  182.0363 H   0  0  0  0  0  0  0  0  0  0  0  0  # atno 4344 bound_to 4325
  148.4810  134.0319  155.5732 H   0  0  0  0  0  0  0  0  0  0  0  0  # atno 4684 bound_to 4679
  143.3731  144.9218  166.7767 H   0  0  0  0  0  0  0  0  0  0  0  0  # atno 4755 bound_to 4748
  132.7046  147.0852  149.5224 H   0  0  0  0  0  0  0  0  0  0  0  0  # atno 8046 bound_to 8035
  132.3222  147.0629  147.9099 H   0  0  0  0  0  0  0  0  0  0  0  0  # atno 8047 bound_to 8035
  133.5034  148.0840  148.4675 H   0  0  0  0  0  0  0  0  0  0  0  0  # atno 8048 bound_to 8035
  130.5107  143.7680  185.0238 LP  0  0  0  0  0  0  0  0  0  0  0  0  # atno 14301 bound_to 862 
  129.9141  142.0622  181.9366 LP  0  0  0  0  0  0  0  0  0  0  0  0  # atno 14302 bound_to 865 
  129.0322  140.5764  181.8154 LP  0  0  0  0  0  0  0  0  0  0  0  0  # atno 14303 bound_to 865 
  116.8806  120.9727  181.1568 LP  0  0  0  0  0  0  0  0  0  0  0  0  # atno 14306 bound_to 4325
  118.2914  117.3439  182.6773 LP  0  0  0  0  0  0  0  0  0  0  0  0  # atno 14307 bound_to 4328
  116.7847  118.0086  183.2139 LP  0  0  0  0  0  0  0  0  0  0  0  0  # atno 14308 bound_to 4328
  138.4360  120.4574  150.5142 LP  0  0  0  0  0  0  0  0  0  0  0  0  # atno 14311 bound_to 1834
  137.7785  120.1190  149.0582 LP  0  0  0  0  0  0  0  0  0  0  0  0  # atno 14312 bound_to 1834
  108.5098  133.9247   98.1509 LP  0  0  0  0  0  0  0  0  0  0  0  0  # atno 14335 bound_to 103 
  112.4697  135.3338  100.5193 LP  0  0  0  0  0  0  0  0  0  0  0  0  # atno 14336 bound_to 106 
  111.8282  133.7277  100.4238 LP  0  0  0  0  0  0  0  0  0  0  0  0  # atno 14337 bound_to 106 
  148.9242  135.5452  155.1696 LP  0  0  0  0  0  0  0  0  0  0  0  0  # atno 14376 bound_to 4679
  148.0961  135.2751  156.5508 LP  0  0  0  0  0  0  0  0  0  0  0  0  # atno 14377 bound_to 4679
  130.2791  116.9180  143.5673 LP  0  0  0  0  0  0  0  0  0  0  0  0  # atno 14397 bound_to 2733
  129.2026  117.2317  144.7545 LP  0  0  0  0  0  0  0  0  0  0  0  0  # atno 14398 bound_to 2733
  139.2661  130.0021  135.7453 LP  0  0  0  0  0  0  0  0  0  0  0  0  # atno 14401 bound_to 3259
  138.8265  131.1971  134.7231 LP  0  0  0  0  0  0  0  0  0  0  0  0  # atno 14402 bound_to 3259
  144.8231  133.6000  150.9024 LP  0  0  0  0  0  0  0  0  0  0  0  0  # atno 14409 bound_to 204 
  143.8648  133.6838  149.5828 LP  0  0  0  0  0  0  0  0  0  0  0  0  # atno 14410 bound_to 204 
  130.8780  158.1124  180.3832 LP  0  0  0  0  0  0  0  0  0  0  0  0  # atno 14421 bound_to 1170
  127.1009  155.2328  181.4588 LP  0  0  0  0  0  0  0  0  0  0  0  0  # atno 14422 bound_to 1173
  128.2152  154.8688  182.7338 LP  0  0  0  0  0  0  0  0  0  0  0  0  # atno 14423 bound_to 1173
  130.0142  112.8774  179.7494 LP  0  0  0  0  0  0  0  0  0  0  0  0  # atno 14428 bound_to 225 
  134.1724  112.5309  181.0448 LP  0  0  0  0  0  0  0  0  0  0  0  0  # atno 14429 bound_to 228 
  132.9394  113.2595  180.0708 LP  0  0  0  0  0  0  0  0  0  0  0  0  # atno 14430 bound_to 228 
  137.6406  115.0563  144.4429 LP  0  0  0  0  0  0  0  0  0  0  0  0  # atno 14433 bound_to 2765
  137.6688  116.4414  145.3075 LP  0  0  0  0  0  0  0  0  0  0  0  0  # atno 14434 bound_to 2765
  114.0111  117.1092  167.4336 LP  0  0  0  0  0  0  0  0  0  0  0  0  # atno 14437 bound_to 3927
  117.0634  113.1404  166.7525 LP  0  0  0  0  0  0  0  0  0  0  0  0  # atno 14438 bound_to 3930
  115.5477  112.8901  165.9524 LP  0  0  0  0  0  0  0  0  0  0  0  0  # atno 14439 bound_to 3930
  153.2886  128.8817  146.3554 LP  0  0  0  0  0  0  0  0  0  0  0  0  # atno 14450 bound_to 288 
  153.5000  130.1197  147.3991 LP  0  0  0  0  0  0  0  0  0  0  0  0  # atno 14451 bound_to 288 
  113.6324  136.9929  109.2050 LP  0  0  0  0  0  0  0  0  0  0  0  0  # atno 14452 bound_to 289 
  113.5412  137.2535  114.3083 LP  0  0  0  0  0  0  0  0  0  0  0  0  # atno 14453 bound_to 292 
  114.7032  138.2450  113.4919 LP  0  0  0  0  0  0  0  0  0  0  0  0  # atno 14454 bound_to 292 
  144.7894  144.8962  167.5778 LP  0  0  0  0  0  0  0  0  0  0  0  0  # atno 14459 bound_to 4748
  143.4306  144.3468  168.2980 LP  0  0  0  0  0  0  0  0  0  0  0  0  # atno 14460 bound_to 4748
  143.2596  126.7011  148.9961 LP  0  0  0  0  0  0  0  0  0  0  0  0  # atno 14463 bound_to 1222
  143.8153  125.8773  147.7003 LP  0  0  0  0  0  0  0  0  0  0  0  0  # atno 14464 bound_to 1222
  114.9786  152.4572  181.5341 LP  0  0  0  0  0  0  0  0  0  0  0  0  # atno 14469 bound_to 64  
  113.9031  156.0894  179.1910 LP  0  0  0  0  0  0  0  0  0  0  0  0  # atno 14470 bound_to 67  
  115.4095  155.9959  178.3414 LP  0  0  0  0  0  0  0  0  0  0  0  0  # atno 14471 bound_to 67  
  119.6068  113.7144  166.6926 LP  0  0  0  0  0  0  0  0  0  0  0  0  # atno 14477 bound_to 3972
  120.3404  111.1283  166.6151 LP  0  0  0  0  0  0  0  0  0  0  0  0  # atno 14478 bound_to 3975
  120.0953  110.0607  167.9568 LP  0  0  0  0  0  0  0  0  0  0  0  0  # atno 14479 bound_to 3975
  125.3014  158.8344  170.2852 LP  0  0  0  0  0  0  0  0  0  0  0  0  # atno 14484 bound_to 1767
  122.2257  156.3511  167.9191 LP  0  0  0  0  0  0  0  0  0  0  0  0  # atno 14485 bound_to 1770
  122.1018  156.8928  169.5596 LP  0  0  0  0  0  0  0  0  0  0  0  0  # atno 14486 bound_to 1770
  115.8666  158.6950  160.3844 LP  0  0  0  0  0  0  0  0  0  0  0  0  # atno 14495 bound_to 334 
  117.3960  159.9530  158.6421 LP  0  0  0  0  0  0  0  0  0  0  0  0  # atno 14496 bound_to 337 
  118.2226  159.4167  157.2176 LP  0  0  0  0  0  0  0  0  0  0  0  0  # atno 14497 bound_to 337 
  136.9811  136.9874  163.7722 LP  0  0  0  0  0  0  0  0  0  0  0  0  # atno 14500 bound_to 4013
  137.9512  137.4420  165.0047 LP  0  0  0  0  0  0  0  0  0  0  0  0  # atno 14501 bound_to 4013
  130.8132  127.2429  151.6891 LP  0  0  0  0  0  0  0  0  0  0  0  0  # atno 14506 bound_to 1802
  131.6547  128.6005  151.3492 LP  0  0  0  0  0  0  0  0  0  0  0  0  # atno 14507 bound_to 1802

> <Gold.Score>
     Fitness  S(hb_ext) S(vdw_ext)  S(hb_int)    S(int)      intcor
     34.33       5.42      22.52       0.00      -2.05      -0.76

> <Gold.Goldscore.Fitness>
34.3255

> <Gold.Goldscore.Internal.Vdw>
-2.4437

> <Gold.Goldscore.Internal.Torsion>
-0.3675

> <Gold.Goldscore.External.Vdw>
22.5161

> <Gold.Goldscore.Internal.HBond>
0.0000

> <Gold.Goldscore.External.HBond>
5.4186

> <Gold.Goldscore.Internal.Correction>
-0.7585

> <Gold.Goldscore.Hbonds>
donor molecule, donor type, donor heavy atom, donor atom, acceptor molecule, acceptor atom, score
      P1  H  4748  4755       L1    17  0.81
      P1  H  4756  4762       L1    17  0.96
      L1  H     8    22       P1  4036  0.94

> <Gold.Goldscore.Internal.Vdw.Weighted>
-2.4437

> <Gold.Goldscore.Internal.Torsion.Weighted>
-0.3675

> <Gold.Goldscore.External.Vdw.Weighted>
30.9597

> <Gold.Goldscore.Internal.HBond.Weighted>
0.0000

> <Gold.Goldscore.External.HBond.Weighted>
5.4186

> <Gold.Goldscore.Internal.Correction.Weighted>
-0.7585

> <Gold.Rescore>
     Score     S(PLP)   S(hbond)     S(cho)   S(metal)  DE(clash)   DE(tors)     intcor
     33.89     -27.65       2.86       0.00       0.00       2.04       0.15       ----

> <Gold.PLP.Fitness>
33.8912

> <Gold.PLP.PLP>
-27.6535

> <Gold.PLP.part.hbond>
-2.9037

> <Gold.PLP.part.metal>
0.0000

> <Gold.PLP.part.buried>
-8.2002

> <Gold.PLP.part.nonpolar>
-20.3610

> <Gold.PLP.part.repulsive>
3.4623

> <Gold.PLP.ligand.clash>
2.0381

> <Gold.PLP.ligand.torsion>
0.1540

> <Gold.PLP.Chemscore.Hbond>
2.8613

> <Gold.PLP.Chemscore.CHOScore>
0.0000

> <Gold.PLP.Chemscore.Metal>
0.0000

> <Gold.Chemscore.Hbonds>
donor molecule, donor type, donor heavy atom, donor atom, acceptor molecule, acceptor atom, score
      L1  H     8    22       P1  4036  1.00
      P1  H  4748  4755       L1    17  0.21
      P1  H  4756  4762       L1    17  0.76

> <Gold.PLP.Chemscore.Internal.Correction>
   9.000000E+99

