#       Name:                CT1002167954
#       Creating user name   hitesit
#       Creation time:       Sun Apr 16 20:21:04 2023


#       File generated by GOLD software.
#

@<TRIPOS>MOLECULE
CT1002167954|ligand_prepared|mol2|1|dock5
    29    30     1
SMALL
NO_CHARGES


@<TRIPOS>ATOM
      1 C1         142.4906 129.2900 146.3271 C.3            1 RES1               0.0000
      2 C2         141.5530 128.0720 146.2003 C.ar           1 RES1               0.0000
      3 C3         141.5886 130.5104 146.4864 C.2            1 RES1               0.0000
      4 C4         143.3852 129.0163 147.5310 C.2            1 RES1               0.0000
      5 C5         143.4003 129.5090 145.0958 C.3            1 RES1               0.0000
      6 C6         141.0117 127.4735 147.3341 C.ar           1 RES1               0.0000
      7 C7         141.2186 127.5383 144.9586 C.ar           1 RES1               0.0000
      8 N8         141.5077 131.0792 147.7232 N.am           1 RES1               0.0000
      9 O9         140.9276 130.9430 145.5503 O.2            1 RES1               0.0000
     10 N10        143.2587 129.8332 148.6239 N.am           1 RES1               0.0000
     11 O11        144.1869 128.0904 147.5493 O.2            1 RES1               0.0000
     12 C12        144.4937 130.5422 145.3173 C.3            1 RES1               0.0000
     13 C13        140.1644 126.3828 147.2303 C.ar           1 RES1               0.0000
     14 C14        140.3713 126.4473 144.8570 C.ar           1 RES1               0.0000
     15 C15        142.3390 130.8331 148.7863 C.2            1 RES1               0.0000
     16 C16        139.8433 125.8692 145.9918 C.ar           1 RES1               0.0000
     17 O17        142.2511 131.4888 149.8205 O.2            1 RES1               0.0000
     18 H18        143.8669 128.5533 144.8270 H              1 RES1               0.0000
     19 H19        142.7789 129.8284 144.2500 H              1 RES1               0.0000
     20 H20        141.2549 127.8622 148.3174 H              1 RES1               0.0000
     21 H21        141.6230 127.9762 144.0523 H              1 RES1               0.0000
     22 H22        140.7600 131.7494 147.8715 H              1 RES1               0.0000
     23 H23        143.9106 129.6818 149.3871 H              1 RES1               0.0000
     24 H24        145.1027 130.6572 144.4231 H              1 RES1               0.0000
     25 H25        144.0646 131.5117 145.5619 H              1 RES1               0.0000
     26 H26        145.1460 130.2441 146.1355 H              1 RES1               0.0000
     27 H27        139.7526 125.9306 148.1265 H              1 RES1               0.0000
     28 H28        140.1218 126.0461 143.8802 H              1 RES1               0.0000
     29 H29        139.1793 125.0150 145.9107 H              1 RES1               0.0000
@<TRIPOS>BOND
    1    1    2 1     
    2    1    3 1     
    3    1    4 1     
    4    1    5 1     
    5    2    6 ar    
    6    2    7 ar    
    7    3    8 1     
    8    3    9 2     
    9    4   10 1     
   10    4   11 2     
   11    5   12 1     
   12    5   18 1     
   13    5   19 1     
   14    6   13 ar    
   15    6   20 1     
   16    7   14 ar    
   17    7   21 1     
   18    8   15 1     
   19    8   22 1     
   20   10   15 1     
   21   10   23 1     
   22   12   24 1     
   23   12   25 1     
   24   12   26 1     
   25   13   16 ar    
   26   13   27 1     
   27   14   16 ar    
   28   14   28 1     
   29   15   17 2     
   30   16   29 1     
@<TRIPOS>SUBSTRUCTURE
      1 RES1           1
@<TRIPOS>SET
DONOR_HYDROGENS      STATIC     ATOMS    <user>   **** ""
2 22 23
ATOM$RED        STATIC     ATOMS    COLORGROUP SYSTEM
2 22 23
@<TRIPOS>COMMENT
> <Gold.Version>
2022.3.0

> <Gold.Id.Protein>
unknown|7rmi_cavity_clean|pdb

> <Gold.Protein.RotatedTorsions>
[  882  862  863  864 ] final  -73.25 input   59.67 | X-H torsion
[ 4344 4325 4326 4327 ] final  -35.34 input   58.17 | X-H torsion
[ 1839 1834 1833 1830 ] final -164.92 input   59.99 | X-H torsion
[  114  103  104  105 ] final -163.66 input  112.99 | X-H torsion
[  166  159  158  157 ] final -174.57 input   59.97 | X-H torsion
[ 4684 4679 4678 4675 ] final  124.64 input   59.98 | X-H torsion
[ 8046 8035 8034 8033 ] final -128.88 input   59.99 | X-H torsion
[ 2742 2733 2732 2730 ] final  -71.30 input   60.00 | X-H torsion
[ 3268 3259 3258 3256 ] final -126.03 input   59.98 | X-H torsion
[  210  204  203  201 ] final -131.90 input   60.02 | X-H torsion
[ 1184 1170 1171 1172 ] final  104.52 input   67.97 | X-H torsion
[  241  225  226  227 ] final  176.69 input   51.53 | X-H torsion
[ 2774 2765 2764 2762 ] final -179.17 input   60.03 | X-H torsion
[ 3932 3927 3928 3929 ] final  123.88 input   88.25 | X-H torsion
[  295  288  286  283 ] final  -24.20 input   60.03 | X-H torsion
[  297  289  290  291 ] final  -83.21 input  115.34 | X-H torsion
[ 4755 4748 4746 4743 ] final  111.78 input   60.02 | X-H torsion
[ 1228 1222 1220 1217 ] final   19.78 input   59.96 | X-H torsion
[   74   64   65   66 ] final  131.67 input  112.25 | X-H torsion
[ 3990 3972 3973 3974 ] final  -95.90 input   60.58 | X-H torsion
[ 1778 1767 1768 1769 ] final  141.77 input  110.17 | X-H torsion
[  348  334  335  336 ] final  159.69 input   81.54 | X-H torsion
[ 4022 4013 4012 4010 ] final  -34.89 input   60.01 | X-H torsion
[ 1809 1802 1800 1797 ] final   -7.87 input   60.00 | X-H torsion
[ 14302  865  864  863 ] final   31.46 input   -0.00 | X-H torsion
[ 14307 4328 4327 4326 ] final  129.65 input   -0.00 | X-H torsion
[ 14336  106  105  104 ] final  -78.06 input    0.00 | X-H torsion
[ 14422 1173 1172 1171 ] final -166.88 input   -0.00 | X-H torsion
[ 14429  228  227  226 ] final   79.12 input    0.00 | X-H torsion
[ 14438 3930 3929 3928 ] final -107.57 input   -0.00 | X-H torsion
[ 14453  292  291  290 ] final   22.78 input    0.00 | X-H torsion
[ 14470   67   66   65 ] final -131.77 input   -0.00 | X-H torsion
[ 14478 3975 3974 3973 ] final   35.69 input   -0.00 | X-H torsion
[ 14485 1770 1769 1768 ] final  -47.43 input   -0.00 | X-H torsion
[ 14496  337  336  335 ] final   71.65 input   -0.00 | X-H torsion

> <Gold.Protein.ActiveResidues>
 GLU27   LEU30   GLN31   ASP33   LYS34   GLN35   VAL36   TYR37   ARG38   THR40  
 HIS41   ARG42   GLU209  HIS220  PHE222  GLN236  ASN239  ASP240  VAL241  THR242 
 ARG280  TRP281  LEU282  ARG283  THR284  ILE285  SER286  VAL287  ILE288  GLY355 
 ARG356  HIS357  TYR358  CYS359  TYR360  ASP381  ILE382  ILE383  GLN385  MET386 
 ASN387  LEU388  ARG389  GLU390  TYR391  VAL394  ALA56   LYS57   ILE58   TYR59  
 ALA60   MET61   LEU79   ILE80   ILE81   TRP82   ILE93   SER98   TRP99   VAL100 
 MET101  THR102  CYS103  GLY310  HIS311  ASP312  ASN313  TRP332  ASP333  SER334 
 PHE335  LYS337 

> <Gold.Protein.RotatedAtoms>
  115.3198  151.5821  180.5731 H   0  0  0  0  0  0  0  0  0  0  0  0  # atno 74   bound_to 64  
  108.7254  133.5671   97.2594 H   0  0  0  0  0  0  0  0  0  0  0  0  # atno 114  bound_to 103 
  143.7162  139.5730  141.8384 H   0  0  0  0  0  0  0  0  0  0  0  0  # atno 166  bound_to 159 
  144.8306  139.3421  140.6331 H   0  0  0  0  0  0  0  0  0  0  0  0  # atno 167  bound_to 159 
  144.8847  138.4090  142.0021 H   0  0  0  0  0  0  0  0  0  0  0  0  # atno 168  bound_to 159 
  143.9545  133.5471  149.6386 H   0  0  0  0  0  0  0  0  0  0  0  0  # atno 210  bound_to 204 
  129.5867  113.3489  180.1418 H   0  0  0  0  0  0  0  0  0  0  0  0  # atno 241  bound_to 225 
  153.0372  129.0869  145.9759 H   0  0  0  0  0  0  0  0  0  0  0  0  # atno 295  bound_to 288 
  115.2089  137.2421  109.8673 H   0  0  0  0  0  0  0  0  0  0  0  0  # atno 297  bound_to 289 
  114.4460  158.2617  159.5506 H   0  0  0  0  0  0  0  0  0  0  0  0  # atno 348  bound_to 334 
  130.2014  142.3701  185.3825 H   0  0  0  0  0  0  0  0  0  0  0  0  # atno 882  bound_to 862 
  130.5942  158.0560  180.1599 H   0  0  0  0  0  0  0  0  0  0  0  0  # atno 1184 bound_to 1170
  143.5295  126.7081  149.2492 H   0  0  0  0  0  0  0  0  0  0  0  0  # atno 1228 bound_to 1222
  125.0920  160.3785  169.7057 H   0  0  0  0  0  0  0  0  0  0  0  0  # atno 1778 bound_to 1767
  130.8802  127.1670  152.1246 H   0  0  0  0  0  0  0  0  0  0  0  0  # atno 1809 bound_to 1802
  137.8436  119.5926  149.0182 H   0  0  0  0  0  0  0  0  0  0  0  0  # atno 1839 bound_to 1834
  129.9435  115.8781  143.6999 H   0  0  0  0  0  0  0  0  0  0  0  0  # atno 2742 bound_to 2733
  137.9523  116.2422  145.0411 H   0  0  0  0  0  0  0  0  0  0  0  0  # atno 2774 bound_to 2765
  139.6723  129.7877  134.2768 H   0  0  0  0  0  0  0  0  0  0  0  0  # atno 3268 bound_to 3259
  114.3772  117.3214  167.1906 H   0  0  0  0  0  0  0  0  0  0  0  0  # atno 3932 bound_to 3927
  119.3903  114.3055  167.0570 H   0  0  0  0  0  0  0  0  0  0  0  0  # atno 3990 bound_to 3972
  137.1010  136.7127  163.6393 H   0  0  0  0  0  0  0  0  0  0  0  0  # atno 4022 bound_to 4013
  115.8053  119.8711  181.9934 H   0  0  0  0  0  0  0  0  0  0  0  0  # atno 4344 bound_to 4325
  148.9663  134.9471  154.9517 H   0  0  0  0  0  0  0  0  0  0  0  0  # atno 4684 bound_to 4679
  143.0473  144.4234  167.8976 H   0  0  0  0  0  0  0  0  0  0  0  0  # atno 4755 bound_to 4748
  133.1792  147.8977  147.8810 H   0  0  0  0  0  0  0  0  0  0  0  0  # atno 8046 bound_to 8035
  133.2029  147.5695  149.5054 H   0  0  0  0  0  0  0  0  0  0  0  0  # atno 8047 bound_to 8035
  132.1471  146.7643  148.5125 H   0  0  0  0  0  0  0  0  0  0  0  0  # atno 8048 bound_to 8035
  130.8641  143.4933  184.2130 LP  0  0  0  0  0  0  0  0  0  0  0  0  # atno 14301 bound_to 862 
  130.1577  141.6801  182.2648 LP  0  0  0  0  0  0  0  0  0  0  0  0  # atno 14302 bound_to 865 
  128.7886  140.9585  181.4871 LP  0  0  0  0  0  0  0  0  0  0  0  0  # atno 14303 bound_to 865 
  116.9254  120.9602  181.1979 LP  0  0  0  0  0  0  0  0  0  0  0  0  # atno 14306 bound_to 4325
  116.8075  117.2939  183.2106 LP  0  0  0  0  0  0  0  0  0  0  0  0  # atno 14307 bound_to 4328
  118.2685  118.0586  182.6806 LP  0  0  0  0  0  0  0  0  0  0  0  0  # atno 14308 bound_to 4328
  138.5942  119.1729  150.3996 LP  0  0  0  0  0  0  0  0  0  0  0  0  # atno 14311 bound_to 1834
  138.1984  120.7330  150.1235 LP  0  0  0  0  0  0  0  0  0  0  0  0  # atno 14312 bound_to 1834
  108.9854  135.2169   97.7707 LP  0  0  0  0  0  0  0  0  0  0  0  0  # atno 14335 bound_to 103 
  111.4210  134.3230  100.8922 LP  0  0  0  0  0  0  0  0  0  0  0  0  # atno 14336 bound_to 106 
  112.8769  134.7386  100.0509 LP  0  0  0  0  0  0  0  0  0  0  0  0  # atno 14337 bound_to 106 
  148.3532  135.7598  156.2216 LP  0  0  0  0  0  0  0  0  0  0  0  0  # atno 14376 bound_to 4679
  148.1786  134.1391  156.1246 LP  0  0  0  0  0  0  0  0  0  0  0  0  # atno 14377 bound_to 4679
  129.9740  117.4766  144.0029 LP  0  0  0  0  0  0  0  0  0  0  0  0  # atno 14397 bound_to 2733
  128.9690  116.5022  144.8439 LP  0  0  0  0  0  0  0  0  0  0  0  0  # atno 14398 bound_to 2733
  139.1838  130.1385  135.7888 LP  0  0  0  0  0  0  0  0  0  0  0  0  # atno 14401 bound_to 3259
  138.8705  131.1739  134.5656 LP  0  0  0  0  0  0  0  0  0  0  0  0  # atno 14402 bound_to 3259
  143.9726  134.9935  150.3847 LP  0  0  0  0  0  0  0  0  0  0  0  0  # atno 14409 bound_to 204 
  144.8352  133.7474  150.9927 LP  0  0  0  0  0  0  0  0  0  0  0  0  # atno 14410 bound_to 204 
  131.5562  156.5935  180.1225 LP  0  0  0  0  0  0  0  0  0  0  0  0  # atno 14421 bound_to 1170
  127.5028  154.3708  181.5829 LP  0  0  0  0  0  0  0  0  0  0  0  0  # atno 14422 bound_to 1173
  127.8134  155.7307  182.6097 LP  0  0  0  0  0  0  0  0  0  0  0  0  # atno 14423 bound_to 1173
  131.2466  113.8241  179.8610 LP  0  0  0  0  0  0  0  0  0  0  0  0  # atno 14428 bound_to 225 
  133.3881  113.7414  180.4822 LP  0  0  0  0  0  0  0  0  0  0  0  0  # atno 14429 bound_to 228 
  133.7238  112.0490  180.6335 LP  0  0  0  0  0  0  0  0  0  0  0  0  # atno 14430 bound_to 228 
  136.4553  115.8556  145.5488 LP  0  0  0  0  0  0  0  0  0  0  0  0  # atno 14433 bound_to 2765
  137.2519  114.8687  144.5202 LP  0  0  0  0  0  0  0  0  0  0  0  0  # atno 14434 bound_to 2765
  115.0436  116.2085  168.3636 LP  0  0  0  0  0  0  0  0  0  0  0  0  # atno 14437 bound_to 3927
  116.7098  113.1200  167.1111 LP  0  0  0  0  0  0  0  0  0  0  0  0  # atno 14438 bound_to 3930
  115.9013  112.9105  165.5937 LP  0  0  0  0  0  0  0  0  0  0  0  0  # atno 14439 bound_to 3930
  153.6237  129.6343  147.3917 LP  0  0  0  0  0  0  0  0  0  0  0  0  # atno 14450 bound_to 288 
  152.8381  130.6499  146.3826 LP  0  0  0  0  0  0  0  0  0  0  0  0  # atno 14451 bound_to 288 
  113.6144  136.7741  109.3291 LP  0  0  0  0  0  0  0  0  0  0  0  0  # atno 14452 bound_to 289 
  113.9232  138.5411  113.6113 LP  0  0  0  0  0  0  0  0  0  0  0  0  # atno 14453 bound_to 292 
  114.3211  136.9574  114.1889 LP  0  0  0  0  0  0  0  0  0  0  0  0  # atno 14454 bound_to 292 
  143.9029  145.0691  166.6732 LP  0  0  0  0  0  0  0  0  0  0  0  0  # atno 14459 bound_to 4748
  144.6453  144.6758  168.0734 LP  0  0  0  0  0  0  0  0  0  0  0  0  # atno 14460 bound_to 4748
  143.4876  126.0389  147.7661 LP  0  0  0  0  0  0  0  0  0  0  0  0  # atno 14463 bound_to 1222
  144.8367  125.9236  148.6791 LP  0  0  0  0  0  0  0  0  0  0  0  0  # atno 14464 bound_to 1222
  114.0389  152.6887  181.0007 LP  0  0  0  0  0  0  0  0  0  0  0  0  # atno 14469 bound_to 64  
  113.7966  156.0692  178.8668 LP  0  0  0  0  0  0  0  0  0  0  0  0  # atno 14470 bound_to 67  
  115.5161  156.0161  178.6656 LP  0  0  0  0  0  0  0  0  0  0  0  0  # atno 14471 bound_to 67  
  118.2582  112.9712  166.9611 LP  0  0  0  0  0  0  0  0  0  0  0  0  # atno 14477 bound_to 3972
  119.7356  111.1321  166.8081 LP  0  0  0  0  0  0  0  0  0  0  0  0  # atno 14478 bound_to 3975
  120.7001  110.0569  167.7639 LP  0  0  0  0  0  0  0  0  0  0  0  0  # atno 14479 bound_to 3975
  125.4494  158.6717  169.8032 LP  0  0  0  0  0  0  0  0  0  0  0  0  # atno 14484 bound_to 1767
  122.4159  156.6109  169.5678 LP  0  0  0  0  0  0  0  0  0  0  0  0  # atno 14485 bound_to 1770
  121.9116  156.6331  167.9109 LP  0  0  0  0  0  0  0  0  0  0  0  0  # atno 14486 bound_to 1770
  115.9228  158.9923  160.1369 LP  0  0  0  0  0  0  0  0  0  0  0  0  # atno 14495 bound_to 334 
  117.5711  159.9554  158.7173 LP  0  0  0  0  0  0  0  0  0  0  0  0  # atno 14496 bound_to 337 
  118.0475  159.4143  157.1424 LP  0  0  0  0  0  0  0  0  0  0  0  0  # atno 14497 bound_to 337 
  137.6783  137.5829  164.8873 LP  0  0  0  0  0  0  0  0  0  0  0  0  # atno 14500 bound_to 4013
  138.4525  136.2283  164.4053 LP  0  0  0  0  0  0  0  0  0  0  0  0  # atno 14501 bound_to 4013
  131.3995  128.3243  151.1047 LP  0  0  0  0  0  0  0  0  0  0  0  0  # atno 14506 bound_to 1802
  131.8434  128.3577  152.6758 LP  0  0  0  0  0  0  0  0  0  0  0  0  # atno 14507 bound_to 1802

> <Gold.Score>
     Fitness  S(hb_ext) S(vdw_ext)  S(hb_int)    S(int)      intcor
     33.98       7.49      19.37       0.00      -0.15      -0.76

> <Gold.Goldscore.Fitness>
33.9760

> <Gold.Goldscore.Internal.Vdw>
-0.3631

> <Gold.Goldscore.Internal.Torsion>
-0.5407

> <Gold.Goldscore.External.Vdw>
19.3656

> <Gold.Goldscore.Internal.HBond>
0.0000

> <Gold.Goldscore.External.HBond>
7.4935

> <Gold.Goldscore.Internal.Correction>
-0.7585

> <Gold.Goldscore.Hbonds>
donor molecule, donor type, donor heavy atom, donor atom, acceptor molecule, acceptor atom, score
      P1  H   204   210       L1    17  0.05
      P1  H   313   322       L1    11  0.74
      P1  H   333   341       L1    17  0.99

> <Gold.Goldscore.Internal.Vdw.Weighted>
-0.3631

> <Gold.Goldscore.Internal.Torsion.Weighted>
-0.5407

> <Gold.Goldscore.External.Vdw.Weighted>
26.6278

> <Gold.Goldscore.Internal.HBond.Weighted>
0.0000

> <Gold.Goldscore.External.HBond.Weighted>
7.4935

> <Gold.Goldscore.Internal.Correction.Weighted>
-0.7585

> <Gold.Rescore>
     Score     S(PLP)   S(hbond)     S(cho)   S(metal)  DE(clash)   DE(tors)     intcor
     39.44     -29.70       3.77       0.00       0.00       0.00       0.79       ----

> <Gold.PLP.Fitness>
39.4396

> <Gold.PLP.PLP>
-29.7007

> <Gold.PLP.part.hbond>
-5.0000

> <Gold.PLP.part.metal>
0.0000

> <Gold.PLP.part.buried>
-4.0584

> <Gold.PLP.part.nonpolar>
-21.9474

> <Gold.PLP.part.repulsive>
0.2844

> <Gold.PLP.ligand.clash>
0.0000

> <Gold.PLP.ligand.torsion>
0.7893

> <Gold.PLP.Chemscore.Hbond>
3.7725

> <Gold.PLP.Chemscore.CHOScore>
0.0000

> <Gold.PLP.Chemscore.Metal>
0.0000

> <Gold.Chemscore.Hbonds>
donor molecule, donor type, donor heavy atom, donor atom, acceptor molecule, acceptor atom, score
      P1  H   313   322       L1    11  0.47
      P1  H   333   341       L1    17  1.00

> <Gold.PLP.Chemscore.Internal.Correction>
   9.000000E+99

