#       Name:                CT1002167954
#       Creating user name   hitesit
#       Creation time:       Sun Apr 16 20:21:30 2023


#       File generated by GOLD software.
#

@<TRIPOS>MOLECULE
CT1002167954|ligand_prepared|mol2|1|dock7
    29    30     1
SMALL
NO_CHARGES


@<TRIPOS>ATOM
      1 C1         143.3356 130.0099 146.4516 C.3            1 RES1               0.0000
      2 C2         142.5369 128.9025 145.7342 C.ar           1 RES1               0.0000
      3 C3         142.7931 130.0749 147.8763 C.2            1 RES1               0.0000
      4 C4         144.8025 129.6040 146.3623 C.2            1 RES1               0.0000
      5 C5         143.1862 131.4067 145.8049 C.3            1 RES1               0.0000
      6 C6         142.5406 128.8125 144.3455 C.ar           1 RES1               0.0000
      7 C7         141.7953 127.9637 146.4465 C.ar           1 RES1               0.0000
      8 N8         143.5726 129.5659 148.8730 N.am           1 RES1               0.0000
      9 O9         141.6816 130.5299 148.1167 O.2            1 RES1               0.0000
     10 N10        145.4553 129.2952 147.5269 N.am           1 RES1               0.0000
     11 O11        145.3944 129.5326 145.2923 O.2            1 RES1               0.0000
     12 C12        143.8653 132.5201 146.5867 C.3            1 RES1               0.0000
     13 C13        141.8310 127.8183 143.6925 C.ar           1 RES1               0.0000
     14 C14        141.0862 126.9704 145.7915 C.ar           1 RES1               0.0000
     15 C15        144.8984 129.2281 148.7750 C.2            1 RES1               0.0000
     16 C16        141.1038 126.8965 144.4149 C.ar           1 RES1               0.0000
     17 O17        145.5379 128.8895 149.7667 O.2            1 RES1               0.0000
     18 H18        143.6110 131.3751 144.7940 H              1 RES1               0.0000
     19 H19        142.1184 131.6407 145.7126 H              1 RES1               0.0000
     20 H20        143.1051 129.5306 143.7601 H              1 RES1               0.0000
     21 H21        141.7661 128.0031 147.5301 H              1 RES1               0.0000
     22 H22        143.1285 129.4232 149.7745 H              1 RES1               0.0000
     23 H23        146.4484 129.0972 147.4570 H              1 RES1               0.0000
     24 H24        143.7300 133.4784 146.0897 H              1 RES1               0.0000
     25 H25        143.4496 132.5966 147.5892 H              1 RES1               0.0000
     26 H26        144.9334 132.3326 146.6761 H              1 RES1               0.0000
     27 H27        141.8469 127.7653 142.6089 H              1 RES1               0.0000
     28 H28        140.5148 126.2473 146.3641 H              1 RES1               0.0000
     29 H29        140.5483 126.1175 143.9032 H              1 RES1               0.0000
@<TRIPOS>BOND
    1    1    2 1     
    2    1    3 1     
    3    1    4 1     
    4    1    5 1     
    5    2    6 ar    
    6    2    7 ar    
    7    3    8 1     
    8    3    9 2     
    9    4   10 1     
   10    4   11 2     
   11    5   12 1     
   12    5   18 1     
   13    5   19 1     
   14    6   13 ar    
   15    6   20 1     
   16    7   14 ar    
   17    7   21 1     
   18    8   15 1     
   19    8   22 1     
   20   10   15 1     
   21   10   23 1     
   22   12   24 1     
   23   12   25 1     
   24   12   26 1     
   25   13   16 ar    
   26   13   27 1     
   27   14   16 ar    
   28   14   28 1     
   29   15   17 2     
   30   16   29 1     
@<TRIPOS>SUBSTRUCTURE
      1 RES1           1
@<TRIPOS>SET
DONOR_HYDROGENS      STATIC     ATOMS    <user>   **** ""
2 22 23
ATOM$RED        STATIC     ATOMS    COLORGROUP SYSTEM
2 22 23
@<TRIPOS>COMMENT
> <Gold.Version>
2022.3.0

> <Gold.Id.Protein>
unknown|7rmi_cavity_clean|pdb

> <Gold.Protein.RotatedTorsions>
[  882  862  863  864 ] final  -97.41 input   59.67 | X-H torsion
[ 4344 4325 4326 4327 ] final   15.01 input   58.17 | X-H torsion
[ 1839 1834 1833 1830 ] final   31.86 input   59.99 | X-H torsion
[  114  103  104  105 ] final   84.68 input  112.99 | X-H torsion
[  166  159  158  157 ] final -115.05 input   59.97 | X-H torsion
[ 4684 4679 4678 4675 ] final   79.53 input   59.98 | X-H torsion
[ 8046 8035 8034 8033 ] final  156.99 input   59.99 | X-H torsion
[ 2742 2733 2732 2730 ] final -103.54 input   60.00 | X-H torsion
[ 3268 3259 3258 3256 ] final  121.49 input   59.98 | X-H torsion
[  210  204  203  201 ] final -119.29 input   60.02 | X-H torsion
[ 1184 1170 1171 1172 ] final  -15.76 input   67.97 | X-H torsion
[  241  225  226  227 ] final  -53.37 input   51.53 | X-H torsion
[ 2774 2765 2764 2762 ] final -171.67 input   60.03 | X-H torsion
[ 3932 3927 3928 3929 ] final  -67.75 input   88.25 | X-H torsion
[  295  288  286  283 ] final  -15.97 input   60.03 | X-H torsion
[  297  289  290  291 ] final -179.14 input  115.34 | X-H torsion
[ 4755 4748 4746 4743 ] final -143.16 input   60.02 | X-H torsion
[ 1228 1222 1220 1217 ] final -102.69 input   59.96 | X-H torsion
[   74   64   65   66 ] final  -13.62 input  112.25 | X-H torsion
[ 3990 3972 3973 3974 ] final -131.98 input   60.58 | X-H torsion
[ 1778 1767 1768 1769 ] final   31.50 input  110.17 | X-H torsion
[  348  334  335  336 ] final -117.90 input   81.54 | X-H torsion
[ 4022 4013 4012 4010 ] final  117.53 input   60.01 | X-H torsion
[ 1809 1802 1800 1797 ] final  127.47 input   60.00 | X-H torsion
[ 14302  865  864  863 ] final   -5.42 input   -0.00 | X-H torsion
[ 14307 4328 4327 4326 ] final  -33.77 input   -0.00 | X-H torsion
[ 14336  106  105  104 ] final  -10.26 input    0.00 | X-H torsion
[ 14422 1173 1172 1171 ] final -175.86 input   -0.00 | X-H torsion
[ 14429  228  227  226 ] final  143.12 input    0.00 | X-H torsion
[ 14438 3930 3929 3928 ] final  154.40 input   -0.00 | X-H torsion
[ 14453  292  291  290 ] final  154.45 input    0.00 | X-H torsion
[ 14470   67   66   65 ] final   72.21 input   -0.00 | X-H torsion
[ 14478 3975 3974 3973 ] final   31.28 input   -0.00 | X-H torsion
[ 14485 1770 1769 1768 ] final  100.20 input   -0.00 | X-H torsion
[ 14496  337  336  335 ] final  -90.82 input   -0.00 | X-H torsion

> <Gold.Protein.ActiveResidues>
 GLU27   LEU30   GLN31   ASP33   LYS34   GLN35   VAL36   TYR37   ARG38   THR40  
 HIS41   ARG42   GLU209  HIS220  PHE222  GLN236  ASN239  ASP240  VAL241  THR242 
 ARG280  TRP281  LEU282  ARG283  THR284  ILE285  SER286  VAL287  ILE288  GLY355 
 ARG356  HIS357  TYR358  CYS359  TYR360  ASP381  ILE382  ILE383  GLN385  MET386 
 ASN387  LEU388  ARG389  GLU390  TYR391  VAL394  ALA56   LYS57   ILE58   TYR59  
 ALA60   MET61   LEU79   ILE80   ILE81   TRP82   ILE93   SER98   TRP99   VAL100 
 MET101  THR102  CYS103  GLY310  HIS311  ASP312  ASN313  TRP332  ASP333  SER334 
 PHE335  LYS337 

> <Gold.Protein.RotatedAtoms>
  113.8926  152.4695  180.5513 H   0  0  0  0  0  0  0  0  0  0  0  0  # atno 74   bound_to 64  
  109.2106  134.8886   96.8740 H   0  0  0  0  0  0  0  0  0  0  0  0  # atno 114  bound_to 103 
  144.0640  139.8082  140.9861 H   0  0  0  0  0  0  0  0  0  0  0  0  # atno 166  bound_to 159 
  145.2377  138.6474  141.1373 H   0  0  0  0  0  0  0  0  0  0  0  0  # atno 167  bound_to 159 
  144.1295  138.8688  142.3500 H   0  0  0  0  0  0  0  0  0  0  0  0  # atno 168  bound_to 159 
  144.0698  133.4043  149.7316 H   0  0  0  0  0  0  0  0  0  0  0  0  # atno 210  bound_to 204 
  130.8631  114.3215  180.2534 H   0  0  0  0  0  0  0  0  0  0  0  0  # atno 241  bound_to 225 
  152.9741  129.1775  145.8994 H   0  0  0  0  0  0  0  0  0  0  0  0  # atno 295  bound_to 288 
  114.2651  137.7164  109.0913 H   0  0  0  0  0  0  0  0  0  0  0  0  # atno 297  bound_to 289 
  115.1438  157.9771  160.4439 H   0  0  0  0  0  0  0  0  0  0  0  0  # atno 348  bound_to 334 
  130.1498  142.6988  185.5519 H   0  0  0  0  0  0  0  0  0  0  0  0  # atno 882  bound_to 862 
  130.8466  156.6329  179.6167 H   0  0  0  0  0  0  0  0  0  0  0  0  # atno 1184 bound_to 1170
  143.5226  126.0188  147.7589 H   0  0  0  0  0  0  0  0  0  0  0  0  # atno 1228 bound_to 1222
  125.5238  159.2117  168.9667 H   0  0  0  0  0  0  0  0  0  0  0  0  # atno 1778 bound_to 1767
  131.9047  128.5156  152.4908 H   0  0  0  0  0  0  0  0  0  0  0  0  # atno 1809 bound_to 1802
  138.6255  119.8030  150.6843 H   0  0  0  0  0  0  0  0  0  0  0  0  # atno 1839 bound_to 1834
  130.2025  116.2900  143.5170 H   0  0  0  0  0  0  0  0  0  0  0  0  # atno 2742 bound_to 2733
  138.0057  116.1633  144.9640 H   0  0  0  0  0  0  0  0  0  0  0  0  # atno 2774 bound_to 2765
  139.2428  130.0366  135.7523 H   0  0  0  0  0  0  0  0  0  0  0  0  # atno 3268 bound_to 3259
  114.8807  116.1487  168.4088 H   0  0  0  0  0  0  0  0  0  0  0  0  # atno 3932 bound_to 3927
  118.9244  114.4572  167.3143 H   0  0  0  0  0  0  0  0  0  0  0  0  # atno 3990 bound_to 3972
  138.5175  136.5964  164.7732 H   0  0  0  0  0  0  0  0  0  0  0  0  # atno 4022 bound_to 4013
  116.4962  119.9133  182.3105 H   0  0  0  0  0  0  0  0  0  0  0  0  # atno 4344 bound_to 4325
  148.9005  135.6060  155.2303 H   0  0  0  0  0  0  0  0  0  0  0  0  # atno 4684 bound_to 4679
  144.4864  144.5807  168.2331 H   0  0  0  0  0  0  0  0  0  0  0  0  # atno 4755 bound_to 4748
  132.3489  147.0968  147.8761 H   0  0  0  0  0  0  0  0  0  0  0  0  # atno 8046 bound_to 8035
  133.5146  148.0830  148.5208 H   0  0  0  0  0  0  0  0  0  0  0  0  # atno 8047 bound_to 8035
  132.6657  147.0515  149.5028 H   0  0  0  0  0  0  0  0  0  0  0  0  # atno 8048 bound_to 8035
  130.9138  143.1766  184.0498 LP  0  0  0  0  0  0  0  0  0  0  0  0  # atno 14301 bound_to 862 
  129.9219  142.0568  181.9446 LP  0  0  0  0  0  0  0  0  0  0  0  0  # atno 14302 bound_to 865 
  129.0244  140.5818  181.8074 LP  0  0  0  0  0  0  0  0  0  0  0  0  # atno 14303 bound_to 865 
  116.2633  120.9197  180.8940 LP  0  0  0  0  0  0  0  0  0  0  0  0  # atno 14306 bound_to 4325
  118.1350  118.2643  182.7271 LP  0  0  0  0  0  0  0  0  0  0  0  0  # atno 14307 bound_to 4328
  116.9410  117.0881  183.1640 LP  0  0  0  0  0  0  0  0  0  0  0  0  # atno 14308 bound_to 4328
  137.9053  120.6541  149.4991 LP  0  0  0  0  0  0  0  0  0  0  0  0  # atno 14311 bound_to 1834
  138.1000  119.0400  149.3465 LP  0  0  0  0  0  0  0  0  0  0  0  0  # atno 14312 bound_to 1834
  108.5098  133.9215   98.1485 LP  0  0  0  0  0  0  0  0  0  0  0  0  # atno 14335 bound_to 103 
  111.9257  133.7028  100.3502 LP  0  0  0  0  0  0  0  0  0  0  0  0  # atno 14336 bound_to 106 
  112.3721  135.3587  100.5930 LP  0  0  0  0  0  0  0  0  0  0  0  0  # atno 14337 bound_to 106 
  148.0736  135.1906  156.5692 LP  0  0  0  0  0  0  0  0  0  0  0  0  # atno 14376 bound_to 4679
  148.5244  134.0450  155.4964 LP  0  0  0  0  0  0  0  0  0  0  0  0  # atno 14377 bound_to 4679
  129.6204  117.5378  144.3841 LP  0  0  0  0  0  0  0  0  0  0  0  0  # atno 14397 bound_to 2733
  129.0616  116.0260  144.6469 LP  0  0  0  0  0  0  0  0  0  0  0  0  # atno 14398 bound_to 2733
  138.8364  131.1937  134.6828 LP  0  0  0  0  0  0  0  0  0  0  0  0  # atno 14401 bound_to 3259
  139.6504  129.8681  134.1860 LP  0  0  0  0  0  0  0  0  0  0  0  0  # atno 14402 bound_to 3259
  143.8679  134.9461  150.2125 LP  0  0  0  0  0  0  0  0  0  0  0  0  # atno 14409 bound_to 204 
  144.8239  133.9385  151.0713 LP  0  0  0  0  0  0  0  0  0  0  0  0  # atno 14410 bound_to 204 
  131.3121  157.9694  180.6477 LP  0  0  0  0  0  0  0  0  0  0  0  0  # atno 14421 bound_to 1170
  127.4205  154.4545  181.5149 LP  0  0  0  0  0  0  0  0  0  0  0  0  # atno 14422 bound_to 1173
  127.8956  155.6471  182.6777 LP  0  0  0  0  0  0  0  0  0  0  0  0  # atno 14423 bound_to 1173
  130.0077  112.8801  179.7528 LP  0  0  0  0  0  0  0  0  0  0  0  0  # atno 14428 bound_to 225 
  134.0613  113.4252  181.0202 LP  0  0  0  0  0  0  0  0  0  0  0  0  # atno 14429 bound_to 228 
  133.0506  112.3652  180.0955 LP  0  0  0  0  0  0  0  0  0  0  0  0  # atno 14430 bound_to 228 
  136.5150  115.9579  145.5836 LP  0  0  0  0  0  0  0  0  0  0  0  0  # atno 14433 bound_to 2765
  137.1384  114.8459  144.5631 LP  0  0  0  0  0  0  0  0  0  0  0  0  # atno 14434 bound_to 2765
  114.5540  117.3486  167.1791 LP  0  0  0  0  0  0  0  0  0  0  0  0  # atno 14437 bound_to 3927
  116.9996  113.0686  165.8371 LP  0  0  0  0  0  0  0  0  0  0  0  0  # atno 14438 bound_to 3930
  115.6116  112.9619  166.8677 LP  0  0  0  0  0  0  0  0  0  0  0  0  # atno 14439 bound_to 3930
  153.6355  129.5064  147.3493 LP  0  0  0  0  0  0  0  0  0  0  0  0  # atno 14450 bound_to 288 
  152.8899  130.6866  146.5021 LP  0  0  0  0  0  0  0  0  0  0  0  0  # atno 14451 bound_to 288 
  114.5390  136.3093  110.0894 LP  0  0  0  0  0  0  0  0  0  0  0  0  # atno 14452 bound_to 289 
  113.6519  137.1536  114.3172 LP  0  0  0  0  0  0  0  0  0  0  0  0  # atno 14453 bound_to 292 
  114.5925  138.3449  113.4830 LP  0  0  0  0  0  0  0  0  0  0  0  0  # atno 14454 bound_to 292 
  142.9584  144.4915  167.6803 LP  0  0  0  0  0  0  0  0  0  0  0  0  # atno 14459 bound_to 4748
  144.1401  145.0950  166.7285 LP  0  0  0  0  0  0  0  0  0  0  0  0  # atno 14460 bound_to 4748
  144.8368  125.9406  148.7158 LP  0  0  0  0  0  0  0  0  0  0  0  0  # atno 14463 bound_to 1222
  143.4945  126.7157  149.2295 LP  0  0  0  0  0  0  0  0  0  0  0  0  # atno 14464 bound_to 1222
  115.4418  151.8164  181.0221 LP  0  0  0  0  0  0  0  0  0  0  0  0  # atno 14469 bound_to 64  
  115.4004  155.9950  178.3256 LP  0  0  0  0  0  0  0  0  0  0  0  0  # atno 14470 bound_to 67  
  113.9123  156.0903  179.2068 LP  0  0  0  0  0  0  0  0  0  0  0  0  # atno 14471 bound_to 67  
  118.7060  112.8254  166.7138 LP  0  0  0  0  0  0  0  0  0  0  0  0  # atno 14477 bound_to 3972
  119.6834  111.1147  166.8457 LP  0  0  0  0  0  0  0  0  0  0  0  0  # atno 14478 bound_to 3975
  120.7523  110.0744  167.7262 LP  0  0  0  0  0  0  0  0  0  0  0  0  # atno 14479 bound_to 3975
  125.0261  159.8159  170.5279 LP  0  0  0  0  0  0  0  0  0  0  0  0  # atno 14484 bound_to 1767
  121.6290  156.9492  168.1418 LP  0  0  0  0  0  0  0  0  0  0  0  0  # atno 14485 bound_to 1770
  122.6985  156.2948  169.3369 LP  0  0  0  0  0  0  0  0  0  0  0  0  # atno 14486 bound_to 1770
  115.2450  159.2687  159.2691 LP  0  0  0  0  0  0  0  0  0  0  0  0  # atno 14495 bound_to 334 
  117.7875  159.4325  157.1017 LP  0  0  0  0  0  0  0  0  0  0  0  0  # atno 14496 bound_to 337 
  117.8311  159.9371  158.7580 LP  0  0  0  0  0  0  0  0  0  0  0  0  # atno 14497 bound_to 337 
  137.4358  136.3117  163.5914 LP  0  0  0  0  0  0  0  0  0  0  0  0  # atno 14500 bound_to 4013
  137.2680  137.6166  164.5589 LP  0  0  0  0  0  0  0  0  0  0  0  0  # atno 14501 bound_to 4013
  130.9609  127.1959  152.3604 LP  0  0  0  0  0  0  0  0  0  0  0  0  # atno 14506 bound_to 1802
  131.2506  128.1284  151.0515 LP  0  0  0  0  0  0  0  0  0  0  0  0  # atno 14507 bound_to 1802

> <Gold.Score>
     Fitness  S(hb_ext) S(vdw_ext)  S(hb_int)    S(int)      intcor
     32.47       4.12      21.54       0.00      -1.27      -0.76

> <Gold.Goldscore.Fitness>
32.4708

> <Gold.Goldscore.Internal.Vdw>
-1.6099

> <Gold.Goldscore.Internal.Torsion>
-0.4187

> <Gold.Goldscore.External.Vdw>
21.5427

> <Gold.Goldscore.Internal.HBond>
0.0000

> <Gold.Goldscore.External.HBond>
4.1197

> <Gold.Goldscore.Internal.Correction>
-0.7585

> <Gold.Goldscore.Hbonds>
donor molecule, donor type, donor heavy atom, donor atom, acceptor molecule, acceptor atom, score
      P1  H   323   356       L1    17  0.74
      L1  H     8    22       P1  1193  0.47
      L1  H    10    23       P1   285  0.85

> <Gold.Goldscore.Internal.Vdw.Weighted>
-1.6099

> <Gold.Goldscore.Internal.Torsion.Weighted>
-0.4187

> <Gold.Goldscore.External.Vdw.Weighted>
29.6212

> <Gold.Goldscore.Internal.HBond.Weighted>
0.0000

> <Gold.Goldscore.External.HBond.Weighted>
4.1197

> <Gold.Goldscore.Internal.Correction.Weighted>
-0.7585

> <Gold.Rescore>
     Score     S(PLP)   S(hbond)     S(cho)   S(metal)  DE(clash)   DE(tors)     intcor
     31.67     -27.45       1.96       0.00       0.00       0.13       0.76       ----

> <Gold.PLP.Fitness>
31.6703

> <Gold.PLP.PLP>
-27.4541

> <Gold.PLP.part.hbond>
-6.5913

> <Gold.PLP.part.metal>
0.0000

> <Gold.PLP.part.buried>
-0.1293

> <Gold.PLP.part.nonpolar>
-22.0781

> <Gold.PLP.part.repulsive>
1.0658

> <Gold.PLP.ligand.clash>
0.1275

> <Gold.PLP.ligand.torsion>
0.7612

> <Gold.PLP.Chemscore.Hbond>
1.9554

> <Gold.PLP.Chemscore.CHOScore>
0.0000

> <Gold.PLP.Chemscore.Metal>
0.0000

> <Gold.Chemscore.Hbonds>
donor molecule, donor type, donor heavy atom, donor atom, acceptor molecule, acceptor atom, score
      L1  H     8    22       P1  1193  0.46
      L1  H    10    23       P1   285  0.81
      P1  H   323   356       L1    17  1.00

> <Gold.PLP.Chemscore.Internal.Correction>
   9.000000E+99

