#       Name:                CT1002167954
#       Creating user name   hitesit
#       Creation time:       Sun Apr 16 20:22:09 2023


#       File generated by GOLD software.
#

@<TRIPOS>MOLECULE
CT1002167954|ligand_prepared|mol2|1|dock10
    29    30     1
SMALL
NO_CHARGES


@<TRIPOS>ATOM
      1 C1         137.8905 144.1582 165.7186 C.3            1 RES1               0.0000
      2 C2         137.1120 142.8983 165.2879 C.ar           1 RES1               0.0000
      3 C3         137.2850 145.3228 164.9405 C.2            1 RES1               0.0000
      4 C4         137.7241 144.2666 167.2303 C.2            1 RES1               0.0000
      5 C5         139.4041 144.0940 165.4079 C.3            1 RES1               0.0000
      6 C6         136.0339 142.4403 166.0392 C.ar           1 RES1               0.0000
      7 C7         137.4579 142.1864 164.1424 C.ar           1 RES1               0.0000
      8 N8         136.4899 146.1944 165.6247 N.am           1 RES1               0.0000
      9 O9         137.4703 145.4520 163.7367 O.2            1 RES1               0.0000
     10 N10        137.0239 145.3359 167.7241 N.am           1 RES1               0.0000
     11 O11        138.1788 143.4267 167.9972 O.2            1 RES1               0.0000
     12 C12        140.2125 145.2014 166.0655 C.3            1 RES1               0.0000
     13 C13        135.3252 141.3131 165.6577 C.ar           1 RES1               0.0000
     14 C14        136.7481 141.0593 163.7628 C.ar           1 RES1               0.0000
     15 C15        136.3730 146.2883 166.9882 C.2            1 RES1               0.0000
     16 C16        135.6815 140.6221 164.5191 C.ar           1 RES1               0.0000
     17 O17        135.7178 147.1891 167.5044 O.2            1 RES1               0.0000
     18 H18        139.7930 143.1252 165.7449 H              1 RES1               0.0000
     19 H19        139.5444 144.1520 164.3215 H              1 RES1               0.0000
     20 H20        135.7404 142.9696 166.9396 H              1 RES1               0.0000
     21 H21        138.2941 142.5113 163.5327 H              1 RES1               0.0000
     22 H22        135.9305 146.8356 165.0713 H              1 RES1               0.0000
     23 H23        136.9843 145.4309 168.7340 H              1 RES1               0.0000
     24 H24        141.2673 145.1098 165.8151 H              1 RES1               0.0000
     25 H25        139.8691 146.1790 165.7334 H              1 RES1               0.0000
     26 H26        140.1162 145.1583 167.1484 H              1 RES1               0.0000
     27 H27        134.4875 140.9724 166.2571 H              1 RES1               0.0000
     28 H28        137.0324 140.5182 162.8663 H              1 RES1               0.0000
     29 H29        135.1260 139.7394 164.2202 H              1 RES1               0.0000
@<TRIPOS>BOND
    1    1    2 1     
    2    1    3 1     
    3    1    4 1     
    4    1    5 1     
    5    2    6 ar    
    6    2    7 ar    
    7    3    8 1     
    8    3    9 2     
    9    4   10 1     
   10    4   11 2     
   11    5   12 1     
   12    5   18 1     
   13    5   19 1     
   14    6   13 ar    
   15    6   20 1     
   16    7   14 ar    
   17    7   21 1     
   18    8   15 1     
   19    8   22 1     
   20   10   15 1     
   21   10   23 1     
   22   12   24 1     
   23   12   25 1     
   24   12   26 1     
   25   13   16 ar    
   26   13   27 1     
   27   14   16 ar    
   28   14   28 1     
   29   15   17 2     
   30   16   29 1     
@<TRIPOS>SUBSTRUCTURE
      1 RES1           1
@<TRIPOS>SET
DONOR_HYDROGENS      STATIC     ATOMS    <user>   **** ""
2 22 23
ATOM$RED        STATIC     ATOMS    COLORGROUP SYSTEM
2 22 23
@<TRIPOS>COMMENT
> <Gold.Version>
2022.3.0

> <Gold.Id.Protein>
unknown|7rmi_cavity_clean|pdb

> <Gold.Protein.RotatedTorsions>
[  882  862  863  864 ] final   27.56 input   59.67 | X-H torsion
[ 4344 4325 4326 4327 ] final -152.73 input   58.17 | X-H torsion
[ 1839 1834 1833 1830 ] final  107.03 input   59.99 | X-H torsion
[  114  103  104  105 ] final   21.41 input  112.99 | X-H torsion
[  166  159  158  157 ] final  156.88 input   59.97 | X-H torsion
[ 4684 4679 4678 4675 ] final   -8.18 input   59.98 | X-H torsion
[ 8046 8035 8034 8033 ] final -172.16 input   59.99 | X-H torsion
[ 2742 2733 2732 2730 ] final -145.32 input   60.00 | X-H torsion
[ 3268 3259 3258 3256 ] final   23.54 input   59.98 | X-H torsion
[  210  204  203  201 ] final  -82.72 input   60.02 | X-H torsion
[ 1184 1170 1171 1172 ] final  173.05 input   67.97 | X-H torsion
[  241  225  226  227 ] final -162.49 input   51.53 | X-H torsion
[ 2774 2765 2764 2762 ] final  -29.41 input   60.03 | X-H torsion
[ 3932 3927 3928 3929 ] final  112.12 input   88.25 | X-H torsion
[  295  288  286  283 ] final  -60.86 input   60.03 | X-H torsion
[  297  289  290  291 ] final -126.60 input  115.34 | X-H torsion
[ 4755 4748 4746 4743 ] final   99.62 input   60.02 | X-H torsion
[ 1228 1222 1220 1217 ] final  -86.50 input   59.96 | X-H torsion
[   74   64   65   66 ] final -120.86 input  112.25 | X-H torsion
[ 3990 3972 3973 3974 ] final   11.58 input   60.58 | X-H torsion
[ 1778 1767 1768 1769 ] final -100.65 input  110.17 | X-H torsion
[  348  334  335  336 ] final  -72.03 input   81.54 | X-H torsion
[ 4022 4013 4012 4010 ] final -117.20 input   60.01 | X-H torsion
[ 1809 1802 1800 1797 ] final   11.82 input   60.00 | X-H torsion
[ 14302  865  864  863 ] final -118.40 input   -0.00 | X-H torsion
[ 14307 4328 4327 4326 ] final   30.74 input   -0.00 | X-H torsion
[ 14336  106  105  104 ] final  -15.89 input    0.00 | X-H torsion
[ 14422 1173 1172 1171 ] final   20.57 input   -0.00 | X-H torsion
[ 14429  228  227  226 ] final  102.21 input    0.00 | X-H torsion
[ 14438 3930 3929 3928 ] final   82.18 input   -0.00 | X-H torsion
[ 14453  292  291  290 ] final  -53.10 input    0.00 | X-H torsion
[ 14470   67   66   65 ] final   62.78 input   -0.00 | X-H torsion
[ 14478 3975 3974 3973 ] final   71.44 input   -0.00 | X-H torsion
[ 14485 1770 1769 1768 ] final   93.85 input   -0.00 | X-H torsion
[ 14496  337  336  335 ] final  -13.03 input   -0.00 | X-H torsion

> <Gold.Protein.ActiveResidues>
 GLU27   LEU30   GLN31   ASP33   LYS34   GLN35   VAL36   TYR37   ARG38   THR40  
 HIS41   ARG42   GLU209  HIS220  PHE222  GLN236  ASN239  ASP240  VAL241  THR242 
 ARG280  TRP281  LEU282  ARG283  THR284  ILE285  SER286  VAL287  ILE288  GLY355 
 ARG356  HIS357  TYR358  CYS359  TYR360  ASP381  ILE382  ILE383  GLN385  MET386 
 ASN387  LEU388  ARG389  GLU390  TYR391  VAL394  ALA56   LYS57   ILE58   TYR59  
 ALA60   MET61   LEU79   ILE80   ILE81   TRP82   ILE93   SER98   TRP99   VAL100 
 MET101  THR102  CYS103  GLY310  HIS311  ASP312  ASN313  TRP332  ASP333  SER334 
 PHE335  LYS337 

> <Gold.Protein.RotatedAtoms>
  114.8946  152.5171  181.5531 H   0  0  0  0  0  0  0  0  0  0  0  0  # atno 74   bound_to 64  
  109.0164  135.2473   97.7044 H   0  0  0  0  0  0  0  0  0  0  0  0  # atno 114  bound_to 103 
  143.8237  139.2589  142.1738 H   0  0  0  0  0  0  0  0  0  0  0  0  # atno 166  bound_to 159 
  144.4653  139.6349  140.6923 H   0  0  0  0  0  0  0  0  0  0  0  0  # atno 167  bound_to 159 
  145.1426  138.4301  141.6075 H   0  0  0  0  0  0  0  0  0  0  0  0  # atno 168  bound_to 159 
  144.4328  133.1960  150.1441 H   0  0  0  0  0  0  0  0  0  0  0  0  # atno 210  bound_to 204 
  129.5907  113.6346  180.2879 H   0  0  0  0  0  0  0  0  0  0  0  0  # atno 241  bound_to 225 
  153.3314  128.8781  146.4413 H   0  0  0  0  0  0  0  0  0  0  0  0  # atno 295  bound_to 288 
  114.9508  137.6852  109.4640 H   0  0  0  0  0  0  0  0  0  0  0  0  # atno 297  bound_to 289 
  115.7008  158.3775  160.5309 H   0  0  0  0  0  0  0  0  0  0  0  0  # atno 348  bound_to 334 
  130.7803  142.3822  184.1360 H   0  0  0  0  0  0  0  0  0  0  0  0  # atno 882  bound_to 862 
  131.4119  157.9039  180.7193 H   0  0  0  0  0  0  0  0  0  0  0  0  # atno 1184 bound_to 1170
  143.3249  126.1508  147.8731 H   0  0  0  0  0  0  0  0  0  0  0  0  # atno 1228 bound_to 1222
  125.1788  159.1242  170.5389 H   0  0  0  0  0  0  0  0  0  0  0  0  # atno 1778 bound_to 1767
  130.9949  127.2191  152.4192 H   0  0  0  0  0  0  0  0  0  0  0  0  # atno 1809 bound_to 1802
  138.4239  118.9300  149.9760 H   0  0  0  0  0  0  0  0  0  0  0  0  # atno 1839 bound_to 1834
  130.2704  116.9504  143.5857 H   0  0  0  0  0  0  0  0  0  0  0  0  # atno 2742 bound_to 2733
  136.8213  114.8647  144.7384 H   0  0  0  0  0  0  0  0  0  0  0  0  # atno 2774 bound_to 2765
  138.7792  131.1625  135.0363 H   0  0  0  0  0  0  0  0  0  0  0  0  # atno 3268 bound_to 3259
  114.5514  117.3564  167.1526 H   0  0  0  0  0  0  0  0  0  0  0  0  # atno 3932 bound_to 3927
  119.2240  112.9550  166.5832 H   0  0  0  0  0  0  0  0  0  0  0  0  # atno 3990 bound_to 3972
  137.2174  137.5939  164.4925 H   0  0  0  0  0  0  0  0  0  0  0  0  # atno 4022 bound_to 4013
  116.0927  120.8407  180.8459 H   0  0  0  0  0  0  0  0  0  0  0  0  # atno 4344 bound_to 4325
  148.2591  135.6312  156.3583 H   0  0  0  0  0  0  0  0  0  0  0  0  # atno 4684 bound_to 4679
  142.9759  144.4776  167.7206 H   0  0  0  0  0  0  0  0  0  0  0  0  # atno 4755 bound_to 4748
  132.6701  147.4466  147.6926 H   0  0  0  0  0  0  0  0  0  0  0  0  # atno 8046 bound_to 8035
  133.5135  147.9746  149.0181 H   0  0  0  0  0  0  0  0  0  0  0  0  # atno 8047 bound_to 8035
  132.3456  146.8101  149.1887 H   0  0  0  0  0  0  0  0  0  0  0  0  # atno 8048 bound_to 8035
  130.3061  143.4817  185.4145 LP  0  0  0  0  0  0  0  0  0  0  0  0  # atno 14301 bound_to 862 
  128.7984  141.3829  181.3368 LP  0  0  0  0  0  0  0  0  0  0  0  0  # atno 14302 bound_to 865 
  130.1478  141.2557  182.4152 LP  0  0  0  0  0  0  0  0  0  0  0  0  # atno 14303 bound_to 865 
  116.6500  120.0309  182.2976 LP  0  0  0  0  0  0  0  0  0  0  0  0  # atno 14306 bound_to 4325
  117.2940  118.5031  183.0275 LP  0  0  0  0  0  0  0  0  0  0  0  0  # atno 14307 bound_to 4328
  117.7820  116.8493  182.8636 LP  0  0  0  0  0  0  0  0  0  0  0  0  # atno 14308 bound_to 4328
  138.4299  120.4686  150.5056 LP  0  0  0  0  0  0  0  0  0  0  0  0  # atno 14311 bound_to 1834
  137.7784  120.1045  149.0531 LP  0  0  0  0  0  0  0  0  0  0  0  0  # atno 14312 bound_to 1834
  108.7002  133.5699   97.3344 LP  0  0  0  0  0  0  0  0  0  0  0  0  # atno 14335 bound_to 103 
  111.8586  133.7180  100.4002 LP  0  0  0  0  0  0  0  0  0  0  0  0  # atno 14336 bound_to 106 
  112.4392  135.3436  100.5429 LP  0  0  0  0  0  0  0  0  0  0  0  0  # atno 14337 bound_to 106 
  148.2654  134.0551  155.9520 LP  0  0  0  0  0  0  0  0  0  0  0  0  # atno 14376 bound_to 4679
  148.9784  135.1551  154.9781 LP  0  0  0  0  0  0  0  0  0  0  0  0  # atno 14377 bound_to 4679
  129.1826  117.2029  144.7693 LP  0  0  0  0  0  0  0  0  0  0  0  0  # atno 14397 bound_to 2733
  129.4310  115.6955  144.1926 LP  0  0  0  0  0  0  0  0  0  0  0  0  # atno 14398 bound_to 2733
  139.5320  130.1557  134.0031 LP  0  0  0  0  0  0  0  0  0  0  0  0  # atno 14401 bound_to 3259
  139.4217  129.7724  135.5866 LP  0  0  0  0  0  0  0  0  0  0  0  0  # atno 14402 bound_to 3259
  143.6833  134.5929  149.7753 LP  0  0  0  0  0  0  0  0  0  0  0  0  # atno 14409 bound_to 204 
  144.6430  134.5014  151.0933 LP  0  0  0  0  0  0  0  0  0  0  0  0  # atno 14410 bound_to 204 
  130.7655  156.7405  179.5817 LP  0  0  0  0  0  0  0  0  0  0  0  0  # atno 14421 bound_to 1170
  127.7421  155.7876  182.5436 LP  0  0  0  0  0  0  0  0  0  0  0  0  # atno 14422 bound_to 1173
  127.5740  154.3140  181.6490 LP  0  0  0  0  0  0  0  0  0  0  0  0  # atno 14423 bound_to 1173
  131.2427  113.5468  179.7192 LP  0  0  0  0  0  0  0  0  0  0  0  0  # atno 14428 bound_to 225 
  133.6541  113.7431  180.7044 LP  0  0  0  0  0  0  0  0  0  0  0  0  # atno 14429 bound_to 228 
  133.4577  112.0473  180.4112 LP  0  0  0  0  0  0  0  0  0  0  0  0  # atno 14430 bound_to 228 
  138.0877  115.8867  144.7439 LP  0  0  0  0  0  0  0  0  0  0  0  0  # atno 14433 bound_to 2765
  136.7583  116.2247  145.6299 LP  0  0  0  0  0  0  0  0  0  0  0  0  # atno 14434 bound_to 2765
  114.8742  116.1744  168.4006 LP  0  0  0  0  0  0  0  0  0  0  0  0  # atno 14437 bound_to 3927
  116.0355  112.9237  165.5347 LP  0  0  0  0  0  0  0  0  0  0  0  0  # atno 14438 bound_to 3930
  116.5756  113.1068  167.1701 LP  0  0  0  0  0  0  0  0  0  0  0  0  # atno 14439 bound_to 3930
  153.4643  130.2052  147.3734 LP  0  0  0  0  0  0  0  0  0  0  0  0  # atno 14450 bound_to 288 
  152.7012  130.2893  145.9321 LP  0  0  0  0  0  0  0  0  0  0  0  0  # atno 14451 bound_to 288 
  113.8673  136.3400  109.7242 LP  0  0  0  0  0  0  0  0  0  0  0  0  # atno 14452 bound_to 289 
  114.8559  138.0323  113.5375 LP  0  0  0  0  0  0  0  0  0  0  0  0  # atno 14453 bound_to 292 
  113.3885  137.4662  114.2627 LP  0  0  0  0  0  0  0  0  0  0  0  0  # atno 14454 bound_to 292 
  144.0972  145.0921  166.7139 LP  0  0  0  0  0  0  0  0  0  0  0  0  # atno 14459 bound_to 4748
  144.5229  144.5982  168.2110 LP  0  0  0  0  0  0  0  0  0  0  0  0  # atno 14460 bound_to 4748
  144.8059  125.8398  148.4722 LP  0  0  0  0  0  0  0  0  0  0  0  0  # atno 14463 bound_to 1222
  143.7244  126.6836  149.3582 LP  0  0  0  0  0  0  0  0  0  0  0  0  # atno 14464 bound_to 1222
  114.4569  151.7696  180.0373 LP  0  0  0  0  0  0  0  0  0  0  0  0  # atno 14469 bound_to 64  
  115.4629  156.0025  178.4534 LP  0  0  0  0  0  0  0  0  0  0  0  0  # atno 14470 bound_to 67  
  113.8498  156.0828  179.0791 LP  0  0  0  0  0  0  0  0  0  0  0  0  # atno 14471 bound_to 67  
  118.4180  114.2692  167.4165 LP  0  0  0  0  0  0  0  0  0  0  0  0  # atno 14477 bound_to 3972
  120.2335  111.1513  166.6228 LP  0  0  0  0  0  0  0  0  0  0  0  0  # atno 14478 bound_to 3975
  120.2022  110.0377  167.9491 LP  0  0  0  0  0  0  0  0  0  0  0  0  # atno 14479 bound_to 3975
  125.3643  159.9018  168.9861 LP  0  0  0  0  0  0  0  0  0  0  0  0  # atno 14484 bound_to 1767
  121.5911  157.0020  168.2124 LP  0  0  0  0  0  0  0  0  0  0  0  0  # atno 14485 bound_to 1770
  122.7364  156.2420  169.2663 LP  0  0  0  0  0  0  0  0  0  0  0  0  # atno 14486 bound_to 1770
  114.7040  158.8798  159.1846 LP  0  0  0  0  0  0  0  0  0  0  0  0  # atno 14495 bound_to 334 
  116.9639  159.7288  157.7472 LP  0  0  0  0  0  0  0  0  0  0  0  0  # atno 14496 bound_to 337 
  118.6547  159.6409  158.1125 LP  0  0  0  0  0  0  0  0  0  0  0  0  # atno 14497 bound_to 337 
  138.5100  136.6638  164.8270 LP  0  0  0  0  0  0  0  0  0  0  0  0  # atno 14500 bound_to 4013
  137.5036  136.2597  163.6060 LP  0  0  0  0  0  0  0  0  0  0  0  0  # atno 14501 bound_to 4013
  131.2096  128.0698  151.0483 LP  0  0  0  0  0  0  0  0  0  0  0  0  # atno 14506 bound_to 1802
  131.9179  128.5597  152.4357 LP  0  0  0  0  0  0  0  0  0  0  0  0  # atno 14507 bound_to 1802

> <Gold.Score>
     Fitness  S(hb_ext) S(vdw_ext)  S(hb_int)    S(int)      intcor
     32.46       0.00      24.18       0.00      -0.78      -0.76

> <Gold.Goldscore.Fitness>
32.4582

> <Gold.Goldscore.Internal.Vdw>
-0.9814

> <Gold.Goldscore.Internal.Torsion>
-0.5617

> <Gold.Goldscore.External.Vdw>
24.1766

> <Gold.Goldscore.Internal.HBond>
0.0000

> <Gold.Goldscore.External.HBond>
0.0000

> <Gold.Goldscore.Internal.Correction>
-0.7585

> <Gold.Goldscore.Internal.Vdw.Weighted>
-0.9814

> <Gold.Goldscore.Internal.Torsion.Weighted>
-0.5617

> <Gold.Goldscore.External.Vdw.Weighted>
33.2428

> <Gold.Goldscore.Internal.HBond.Weighted>
0.0000

> <Gold.Goldscore.External.HBond.Weighted>
0.0000

> <Gold.Goldscore.Internal.Correction.Weighted>
-0.7585

> <Gold.Rescore>
     Score     S(PLP)   S(hbond)     S(cho)   S(metal)  DE(clash)   DE(tors)     intcor
     24.77     -27.19       0.00       0.00       0.00       0.98       0.72       ----

> <Gold.PLP.Fitness>
24.7739

> <Gold.PLP.PLP>
-27.1867

> <Gold.PLP.part.hbond>
0.0000

> <Gold.PLP.part.metal>
0.0000

> <Gold.PLP.part.buried>
-7.2631

> <Gold.PLP.part.nonpolar>
-21.5719

> <Gold.PLP.part.repulsive>
1.1688

> <Gold.PLP.ligand.clash>
0.9784

> <Gold.PLP.ligand.torsion>
0.7172

> <Gold.PLP.Chemscore.Hbond>
0.0000

> <Gold.PLP.Chemscore.CHOScore>
0.0000

> <Gold.PLP.Chemscore.Metal>
0.0000

> <Gold.PLP.Chemscore.Internal.Correction>
   9.000000E+99

