#       Name:                CT1002167954
#       Creating user name   hitesit
#       Creation time:       Sun Apr 16 20:21:56 2023


#       File generated by GOLD software.
#

@<TRIPOS>MOLECULE
CT1002167954|ligand_prepared|mol2|1|dock9
    29    30     1
SMALL
NO_CHARGES


@<TRIPOS>ATOM
      1 C1         143.6502 131.3024 146.5704 C.3            1 RES1               0.0000
      2 C2         142.7389 132.4627 146.1211 C.ar           1 RES1               0.0000
      3 C3         143.4003 131.1150 148.0640 C.2            1 RES1               0.0000
      4 C4         143.2605 130.0994 145.7187 C.2            1 RES1               0.0000
      5 C5         145.1576 131.5723 146.3547 C.3            1 RES1               0.0000
      6 C6         142.8552 133.0011 144.8431 C.ar           1 RES1               0.0000
      7 C7         141.7770 133.0024 146.9710 C.ar           1 RES1               0.0000
      8 N8         142.6740 130.0277 148.4515 N.am           1 RES1               0.0000
      9 O9         143.8007 131.9300 148.8861 O.2            1 RES1               0.0000
     10 N10        142.6930 129.0231 146.3491 N.am           1 RES1               0.0000
     11 O11        143.4244 130.0804 144.5050 O.2            1 RES1               0.0000
     12 C12        146.0625 130.5004 146.9414 C.3            1 RES1               0.0000
     13 C13        142.0377 134.0394 144.4286 C.ar           1 RES1               0.0000
     14 C14        140.9607 134.0409 146.5545 C.ar           1 RES1               0.0000
     15 C15        142.3539 128.9450 147.6724 C.2            1 RES1               0.0000
     16 C16        141.0897 134.5597 145.2837 C.ar           1 RES1               0.0000
     17 O17        141.7962 127.9636 148.1550 O.2            1 RES1               0.0000
     18 H18        145.3522 131.6480 145.2778 H              1 RES1               0.0000
     19 H19        145.4122 132.5373 146.8100 H              1 RES1               0.0000
     20 H20        143.5972 132.6062 144.1571 H              1 RES1               0.0000
     21 H21        141.6584 132.6108 147.9755 H              1 RES1               0.0000
     22 H22        142.3377 130.0188 149.4092 H              1 RES1               0.0000
     23 H23        142.5061 128.2043 145.7791 H              1 RES1               0.0000
     24 H24        147.1089 130.7385 146.7622 H              1 RES1               0.0000
     25 H25        145.9135 130.4155 148.0158 H              1 RES1               0.0000
     26 H26        145.8538 129.5314 146.4927 H              1 RES1               0.0000
     27 H27        142.1442 134.4451 143.4279 H              1 RES1               0.0000
     28 H28        140.2163 134.4477 147.2310 H              1 RES1               0.0000
     29 H29        140.4491 135.3729 144.9586 H              1 RES1               0.0000
@<TRIPOS>BOND
    1    1    2 1     
    2    1    3 1     
    3    1    4 1     
    4    1    5 1     
    5    2    6 ar    
    6    2    7 ar    
    7    3    8 1     
    8    3    9 2     
    9    4   10 1     
   10    4   11 2     
   11    5   12 1     
   12    5   18 1     
   13    5   19 1     
   14    6   13 ar    
   15    6   20 1     
   16    7   14 ar    
   17    7   21 1     
   18    8   15 1     
   19    8   22 1     
   20   10   15 1     
   21   10   23 1     
   22   12   24 1     
   23   12   25 1     
   24   12   26 1     
   25   13   16 ar    
   26   13   27 1     
   27   14   16 ar    
   28   14   28 1     
   29   15   17 2     
   30   16   29 1     
@<TRIPOS>SUBSTRUCTURE
      1 RES1           1
@<TRIPOS>SET
DONOR_HYDROGENS      STATIC     ATOMS    <user>   **** ""
2 22 23
ATOM$RED        STATIC     ATOMS    COLORGROUP SYSTEM
2 22 23
@<TRIPOS>COMMENT
> <Gold.Version>
2022.3.0

> <Gold.Id.Protein>
unknown|7rmi_cavity_clean|pdb

> <Gold.Protein.RotatedTorsions>
[  882  862  863  864 ] final   91.84 input   59.67 | X-H torsion
[ 4344 4325 4326 4327 ] final  162.69 input   58.17 | X-H torsion
[ 1839 1834 1833 1830 ] final  131.89 input   59.99 | X-H torsion
[  114  103  104  105 ] final   56.89 input  112.99 | X-H torsion
[  166  159  158  157 ] final -179.13 input   59.97 | X-H torsion
[ 4684 4679 4678 4675 ] final  148.93 input   59.98 | X-H torsion
[ 8046 8035 8034 8033 ] final  102.65 input   59.99 | X-H torsion
[ 2742 2733 2732 2730 ] final  -52.43 input   60.00 | X-H torsion
[ 3268 3259 3258 3256 ] final  123.22 input   59.98 | X-H torsion
[  210  204  203  201 ] final -110.93 input   60.02 | X-H torsion
[ 1184 1170 1171 1172 ] final  -33.35 input   67.97 | X-H torsion
[  241  225  226  227 ] final  165.42 input   51.53 | X-H torsion
[ 2774 2765 2764 2762 ] final  -69.39 input   60.03 | X-H torsion
[ 3932 3927 3928 3929 ] final  107.86 input   88.25 | X-H torsion
[  295  288  286  283 ] final  -58.23 input   60.03 | X-H torsion
[  297  289  290  291 ] final  113.85 input  115.34 | X-H torsion
[ 4755 4748 4746 4743 ] final   61.57 input   60.02 | X-H torsion
[ 1228 1222 1220 1217 ] final  -64.14 input   59.96 | X-H torsion
[   74   64   65   66 ] final   52.85 input  112.25 | X-H torsion
[ 3990 3972 3973 3974 ] final  -87.34 input   60.58 | X-H torsion
[ 1778 1767 1768 1769 ] final  -82.82 input  110.17 | X-H torsion
[  348  334  335  336 ] final  169.76 input   81.54 | X-H torsion
[ 4022 4013 4012 4010 ] final  151.02 input   60.01 | X-H torsion
[ 1809 1802 1800 1797 ] final -102.11 input   60.00 | X-H torsion
[ 14302  865  864  863 ] final  151.45 input   -0.00 | X-H torsion
[ 14307 4328 4327 4326 ] final   60.07 input   -0.00 | X-H torsion
[ 14336  106  105  104 ] final   33.23 input    0.00 | X-H torsion
[ 14422 1173 1172 1171 ] final -136.92 input   -0.00 | X-H torsion
[ 14429  228  227  226 ] final -136.91 input    0.00 | X-H torsion
[ 14438 3930 3929 3928 ] final   14.90 input   -0.00 | X-H torsion
[ 14453  292  291  290 ] final   79.44 input    0.00 | X-H torsion
[ 14470   67   66   65 ] final  170.89 input   -0.00 | X-H torsion
[ 14478 3975 3974 3973 ] final  -37.16 input   -0.00 | X-H torsion
[ 14485 1770 1769 1768 ] final   13.32 input   -0.00 | X-H torsion
[ 14496  337  336  335 ] final -166.84 input   -0.00 | X-H torsion

> <Gold.Protein.ActiveResidues>
 GLU27   LEU30   GLN31   ASP33   LYS34   GLN35   VAL36   TYR37   ARG38   THR40  
 HIS41   ARG42   GLU209  HIS220  PHE222  GLN236  ASN239  ASP240  VAL241  THR242 
 ARG280  TRP281  LEU282  ARG283  THR284  ILE285  SER286  VAL287  ILE288  GLY355 
 ARG356  HIS357  TYR358  CYS359  TYR360  ASP381  ILE382  ILE383  GLN385  MET386 
 ASN387  LEU388  ARG389  GLU390  TYR391  VAL394  ALA56   LYS57   ILE58   TYR59  
 ALA60   MET61   LEU79   ILE80   ILE81   TRP82   ILE93   SER98   TRP99   VAL100 
 MET101  THR102  CYS103  GLY310  HIS311  ASP312  ASN313  TRP332  ASP333  SER334 
 PHE335  LYS337 

> <Gold.Protein.RotatedAtoms>
  114.3705  151.8129  180.0297 H   0  0  0  0  0  0  0  0  0  0  0  0  # atno 74   bound_to 64  
  109.1701  135.1597   97.1968 H   0  0  0  0  0  0  0  0  0  0  0  0  # atno 114  bound_to 103 
  143.7211  139.5287  141.9002 H   0  0  0  0  0  0  0  0  0  0  0  0  # atno 166  bound_to 159 
  144.7758  139.3948  140.6283 H   0  0  0  0  0  0  0  0  0  0  0  0  # atno 167  bound_to 159 
  144.9346  138.4006  141.9451 H   0  0  0  0  0  0  0  0  0  0  0  0  # atno 168  bound_to 159 
  144.1514  133.3277  149.8096 H   0  0  0  0  0  0  0  0  0  0  0  0  # atno 210  bound_to 204 
  129.6310  113.2051  180.0541 H   0  0  0  0  0  0  0  0  0  0  0  0  # atno 241  bound_to 225 
  153.3111  128.8813  146.4035 H   0  0  0  0  0  0  0  0  0  0  0  0  # atno 295  bound_to 288 
  113.6170  136.9968  109.1957 H   0  0  0  0  0  0  0  0  0  0  0  0  # atno 297  bound_to 289 
  114.4654  158.1611  159.6679 H   0  0  0  0  0  0  0  0  0  0  0  0  # atno 348  bound_to 334 
  130.8919  143.3215  184.0611 H   0  0  0  0  0  0  0  0  0  0  0  0  # atno 882  bound_to 862 
  131.0673  156.5221  179.7314 H   0  0  0  0  0  0  0  0  0  0  0  0  # atno 1184 bound_to 1170
  143.1359  126.3404  148.1185 H   0  0  0  0  0  0  0  0  0  0  0  0  # atno 1228 bound_to 1222
  125.2608  158.9082  170.3929 H   0  0  0  0  0  0  0  0  0  0  0  0  # atno 1778 bound_to 1767
  131.1569  127.9858  151.0583 H   0  0  0  0  0  0  0  0  0  0  0  0  # atno 1809 bound_to 1802
  138.2470  118.9258  149.6139 H   0  0  0  0  0  0  0  0  0  0  0  0  # atno 1839 bound_to 1834
  129.7403  115.7372  143.8817 H   0  0  0  0  0  0  0  0  0  0  0  0  # atno 2742 bound_to 2733
  137.4048  114.9252  144.4820 H   0  0  0  0  0  0  0  0  0  0  0  0  # atno 2774 bound_to 2765
  139.2570  130.0138  135.7432 H   0  0  0  0  0  0  0  0  0  0  0  0  # atno 3268 bound_to 3259
  114.6165  117.3628  167.1453 H   0  0  0  0  0  0  0  0  0  0  0  0  # atno 3932 bound_to 3927
  119.4739  114.2262  166.9899 H   0  0  0  0  0  0  0  0  0  0  0  0  # atno 3990 bound_to 3972
  138.3359  137.0498  165.0020 H   0  0  0  0  0  0  0  0  0  0  0  0  # atno 4022 bound_to 4013
  116.7382  120.9912  180.9930 H   0  0  0  0  0  0  0  0  0  0  0  0  # atno 4344 bound_to 4325
  148.8840  134.5648  155.0008 H   0  0  0  0  0  0  0  0  0  0  0  0  # atno 4684 bound_to 4679
  143.0141  144.7039  167.1550 H   0  0  0  0  0  0  0  0  0  0  0  0  # atno 4755 bound_to 4748
  132.1569  146.7439  148.6523 H   0  0  0  0  0  0  0  0  0  0  0  0  # atno 8046 bound_to 8035
  133.0861  147.8234  147.8049 H   0  0  0  0  0  0  0  0  0  0  0  0  # atno 8047 bound_to 8035
  133.2867  147.6643  149.4429 H   0  0  0  0  0  0  0  0  0  0  0  0  # atno 8048 bound_to 8035
  130.1985  142.5763  185.4867 LP  0  0  0  0  0  0  0  0  0  0  0  0  # atno 14301 bound_to 862 
  129.2736  140.4910  182.0316 LP  0  0  0  0  0  0  0  0  0  0  0  0  # atno 14302 bound_to 865 
  129.6726  142.1475  181.7204 LP  0  0  0  0  0  0  0  0  0  0  0  0  # atno 14303 bound_to 865 
  116.0314  119.8867  182.1567 LP  0  0  0  0  0  0  0  0  0  0  0  0  # atno 14306 bound_to 4325
  116.9444  118.2711  183.1547 LP  0  0  0  0  0  0  0  0  0  0  0  0  # atno 14307 bound_to 4328
  118.1316  117.0814  182.7364 LP  0  0  0  0  0  0  0  0  0  0  0  0  # atno 14308 bound_to 4328
  138.5674  120.1231  150.6683 LP  0  0  0  0  0  0  0  0  0  0  0  0  # atno 14311 bound_to 1834
  137.8190  120.4542  149.2551 LP  0  0  0  0  0  0  0  0  0  0  0  0  # atno 14312 bound_to 1834
  108.5495  133.6557   97.8320 LP  0  0  0  0  0  0  0  0  0  0  0  0  # atno 14335 bound_to 103 
  112.4654  133.8520  100.0367 LP  0  0  0  0  0  0  0  0  0  0  0  0  # atno 14336 bound_to 106 
  111.8325  135.2096  100.9064 LP  0  0  0  0  0  0  0  0  0  0  0  0  # atno 14337 bound_to 106 
  148.5536  135.8800  155.9010 LP  0  0  0  0  0  0  0  0  0  0  0  0  # atno 14376 bound_to 4679
  148.0611  134.4038  156.3958 LP  0  0  0  0  0  0  0  0  0  0  0  0  # atno 14377 bound_to 4679
  130.1377  117.3129  143.7979 LP  0  0  0  0  0  0  0  0  0  0  0  0  # atno 14397 bound_to 2733
  129.0100  116.8079  144.8656 LP  0  0  0  0  0  0  0  0  0  0  0  0  # atno 14398 bound_to 2733
  138.8295  131.1962  134.7103 LP  0  0  0  0  0  0  0  0  0  0  0  0  # atno 14401 bound_to 3259
  139.6431  129.8886  134.1675 LP  0  0  0  0  0  0  0  0  0  0  0  0  # atno 14402 bound_to 3259
  143.8085  134.8918  150.1012 LP  0  0  0  0  0  0  0  0  0  0  0  0  # atno 14409 bound_to 204 
  144.8011  134.0700  151.1041 LP  0  0  0  0  0  0  0  0  0  0  0  0  # atno 14410 bound_to 204 
  131.0987  158.0765  180.5369 LP  0  0  0  0  0  0  0  0  0  0  0  0  # atno 14421 bound_to 1170
  127.7928  154.2207  181.8893 LP  0  0  0  0  0  0  0  0  0  0  0  0  # atno 14422 bound_to 1173
  127.5234  155.8809  182.3033 LP  0  0  0  0  0  0  0  0  0  0  0  0  # atno 14423 bound_to 1173
  131.2036  113.9637  179.9461 LP  0  0  0  0  0  0  0  0  0  0  0  0  # atno 14428 bound_to 225 
  134.0704  112.3149  180.9432 LP  0  0  0  0  0  0  0  0  0  0  0  0  # atno 14429 bound_to 228 
  133.0414  113.4755  180.1725 LP  0  0  0  0  0  0  0  0  0  0  0  0  # atno 14430 bound_to 228 
  137.8632  116.3391  145.1444 LP  0  0  0  0  0  0  0  0  0  0  0  0  # atno 14433 bound_to 2765
  136.3953  115.7114  145.4876 LP  0  0  0  0  0  0  0  0  0  0  0  0  # atno 14434 bound_to 2765
  114.8109  116.1682  168.4077 LP  0  0  0  0  0  0  0  0  0  0  0  0  # atno 14437 bound_to 3927
  115.4491  112.9011  166.2938 LP  0  0  0  0  0  0  0  0  0  0  0  0  # atno 14438 bound_to 3930
  117.1620  113.1294  166.4110 LP  0  0  0  0  0  0  0  0  0  0  0  0  # atno 14439 bound_to 3930
  153.4808  130.1672  147.3860 LP  0  0  0  0  0  0  0  0  0  0  0  0  # atno 14450 bound_to 288 
  152.7052  130.3241  145.9575 LP  0  0  0  0  0  0  0  0  0  0  0  0  # atno 14451 bound_to 288 
  115.1740  137.0144  109.9871 LP  0  0  0  0  0  0  0  0  0  0  0  0  # atno 14452 bound_to 289 
  113.3390  138.1070  113.9931 LP  0  0  0  0  0  0  0  0  0  0  0  0  # atno 14453 bound_to 292 
  114.9054  137.3915  113.8071 LP  0  0  0  0  0  0  0  0  0  0  0  0  # atno 14454 bound_to 292 
  144.6002  145.0566  167.0653 LP  0  0  0  0  0  0  0  0  0  0  0  0  # atno 14459 bound_to 4748
  143.9814  144.4059  168.4293 LP  0  0  0  0  0  0  0  0  0  0  0  0  # atno 14460 bound_to 4748
  144.6532  125.7522  148.1519 LP  0  0  0  0  0  0  0  0  0  0  0  0  # atno 14463 bound_to 1222
  144.0674  126.5805  149.4315 LP  0  0  0  0  0  0  0  0  0  0  0  0  # atno 14464 bound_to 1222
  114.9720  152.4618  181.5348 LP  0  0  0  0  0  0  0  0  0  0  0  0  # atno 14469 bound_to 64  
  114.1064  156.0085  178.0981 LP  0  0  0  0  0  0  0  0  0  0  0  0  # atno 14470 bound_to 67  
  115.2063  156.0768  179.4344 LP  0  0  0  0  0  0  0  0  0  0  0  0  # atno 14471 bound_to 67  
  118.1778  113.0474  167.0256 LP  0  0  0  0  0  0  0  0  0  0  0  0  # atno 14477 bound_to 3972
  119.4098  110.5561  167.5952 LP  0  0  0  0  0  0  0  0  0  0  0  0  # atno 14478 bound_to 3975
  121.0258  110.6330  166.9767 LP  0  0  0  0  0  0  0  0  0  0  0  0  # atno 14479 bound_to 3975
  125.2839  160.1136  169.1292 LP  0  0  0  0  0  0  0  0  0  0  0  0  # atno 14484 bound_to 1767
  121.7626  157.1345  169.3107 LP  0  0  0  0  0  0  0  0  0  0  0  0  # atno 14485 bound_to 1770
  122.5649  156.1095  168.1680 LP  0  0  0  0  0  0  0  0  0  0  0  0  # atno 14486 bound_to 1770
  115.9040  159.0900  160.0229 LP  0  0  0  0  0  0  0  0  0  0  0  0  # atno 14495 bound_to 334 
  118.6388  159.5273  157.7372 LP  0  0  0  0  0  0  0  0  0  0  0  0  # atno 14496 bound_to 337 
  116.9798  159.8424  158.1225 LP  0  0  0  0  0  0  0  0  0  0  0  0  # atno 14497 bound_to 337 
  137.8861  136.0737  163.7802 LP  0  0  0  0  0  0  0  0  0  0  0  0  # atno 14500 bound_to 4013
  137.0007  137.3979  164.1395 LP  0  0  0  0  0  0  0  0  0  0  0  0  # atno 14501 bound_to 4013
  131.9281  128.6083  152.3494 LP  0  0  0  0  0  0  0  0  0  0  0  0  # atno 14506 bound_to 1802
  131.0362  127.2493  152.5047 LP  0  0  0  0  0  0  0  0  0  0  0  0  # atno 14507 bound_to 1802

> <Gold.Score>
     Fitness  S(hb_ext) S(vdw_ext)  S(hb_int)    S(int)      intcor
     30.32       5.90      19.02       0.00      -1.74      -0.76

> <Gold.Goldscore.Fitness>
30.3183

> <Gold.Goldscore.Internal.Vdw>
-2.0569

> <Gold.Goldscore.Internal.Torsion>
-0.4408

> <Gold.Goldscore.External.Vdw>
19.0212

> <Gold.Goldscore.Internal.HBond>
0.0000

> <Gold.Goldscore.External.HBond>
5.9033

> <Gold.Goldscore.Internal.Correction>
-0.7585

> <Gold.Goldscore.Hbonds>
donor molecule, donor type, donor heavy atom, donor atom, acceptor molecule, acceptor atom, score
      P1  H   204   210       L1     9  0.99
      P1  H  1222  1228       L1    17  0.02
      P1  H   332   339       L1     9  0.31
      L1  H     8    22       P1  1193  1.00

> <Gold.Goldscore.Internal.Vdw.Weighted>
-2.0569

> <Gold.Goldscore.Internal.Torsion.Weighted>
-0.4408

> <Gold.Goldscore.External.Vdw.Weighted>
26.1542

> <Gold.Goldscore.Internal.HBond.Weighted>
0.0000

> <Gold.Goldscore.External.HBond.Weighted>
5.9033

> <Gold.Goldscore.Internal.Correction.Weighted>
-0.7585

> <Gold.Rescore>
     Score     S(PLP)   S(hbond)     S(cho)   S(metal)  DE(clash)   DE(tors)     intcor
     21.57     -12.53       3.53       0.00       0.00       1.16       0.20       ----

> <Gold.PLP.Fitness>
21.5733

> <Gold.PLP.PLP>
-12.5305

> <Gold.PLP.part.hbond>
-3.5700

> <Gold.PLP.part.metal>
0.0000

> <Gold.PLP.part.buried>
4.1517

> <Gold.PLP.part.nonpolar>
-15.0747

> <Gold.PLP.part.repulsive>
0.3241

> <Gold.PLP.ligand.clash>
1.1550

> <Gold.PLP.ligand.torsion>
0.1972

> <Gold.PLP.Chemscore.Hbond>
3.5308

> <Gold.PLP.Chemscore.CHOScore>
0.0000

> <Gold.PLP.Chemscore.Metal>
0.0000

> <Gold.Chemscore.Hbonds>
donor molecule, donor type, donor heavy atom, donor atom, acceptor molecule, acceptor atom, score
      L1  H     8    22       P1  1193  0.80
      P1  H   204   210       L1     9  1.00
      P1  H  1222  1228       L1    17  0.76
      P1  H   332   339       L1     9  1.00

> <Gold.PLP.Chemscore.Internal.Correction>
   9.000000E+99

