#       Name:                CT1002167954
#       Creating user name   hitesit
#       Creation time:       Sun Apr 16 02:21:30 2023


#       File generated by GOLD software.
#

@<TRIPOS>MOLECULE
CT1002167954|ligand_prepared|mol2|1|dock10
    29    30     1
SMALL
NO_CHARGES


@<TRIPOS>ATOM
      1 C1          23.2692   9.2581  31.8115 C.3            1 RES1               0.0000
      2 C2          24.4341   9.4495  30.8189 C.ar           1 RES1               0.0000
      3 C3          22.6011  10.6222  31.9561 C.2            1 RES1               0.0000
      4 C4          22.3686   8.1847  31.2103 C.2            1 RES1               0.0000
      5 C5          23.7146   8.7782  33.2125 C.3            1 RES1               0.0000
      6 C6          24.5162  10.5967  30.0354 C.ar           1 RES1               0.0000
      7 C7          25.4338   8.4906  30.6778 C.ar           1 RES1               0.0000
      8 N8          21.3920  10.8008  31.3511 N.am           1 RES1               0.0000
      9 O9          23.1450  11.5395  32.5585 O.2            1 RES1               0.0000
     10 N10         21.1062   8.5497  30.8216 N.am           1 RES1               0.0000
     11 O11         22.7464   7.0301  31.0543 O.2            1 RES1               0.0000
     12 C12         24.9353   9.5077  33.7511 C.3            1 RES1               0.0000
     13 C13         25.5613  10.7802  29.1453 C.ar           1 RES1               0.0000
     14 C14         26.4779   8.6760  29.7868 C.ar           1 RES1               0.0000
     15 C15         20.5878   9.8159  30.8364 C.2            1 RES1               0.0000
     16 C16         26.5430   9.8203  29.0207 C.ar           1 RES1               0.0000
     17 O17         19.4625  10.0743  30.4192 O.2            1 RES1               0.0000
     18 H18         22.8827   8.9163  33.9140 H              1 RES1               0.0000
     19 H19         23.9375   7.7052  33.1639 H              1 RES1               0.0000
     20 H20         23.7516  11.3619  30.1180 H              1 RES1               0.0000
     21 H21         25.4025   7.5821  31.2695 H              1 RES1               0.0000
     22 H22         21.0545  11.7550  31.2741 H              1 RES1               0.0000
     23 H23         20.4965   7.8087  30.4906 H              1 RES1               0.0000
     24 H24         25.2052   9.1327  34.7361 H              1 RES1               0.0000
     25 H25         25.7890   9.3707  33.0907 H              1 RES1               0.0000
     26 H26         24.7404  10.5747  33.8364 H              1 RES1               0.0000
     27 H27         25.6072  11.6819  28.5436 H              1 RES1               0.0000
     28 H28         27.2480   7.9176  29.6916 H              1 RES1               0.0000
     29 H29         27.3618   9.9645  28.3235 H              1 RES1               0.0000
@<TRIPOS>BOND
    1    1    2 1     
    2    1    3 1     
    3    1    4 1     
    4    1    5 1     
    5    2    6 ar    
    6    2    7 ar    
    7    3    8 1     
    8    3    9 2     
    9    4   10 1     
   10    4   11 2     
   11    5   12 1     
   12    5   18 1     
   13    5   19 1     
   14    6   13 ar    
   15    6   20 1     
   16    7   14 ar    
   17    7   21 1     
   18    8   15 1     
   19    8   22 1     
   20   10   15 1     
   21   10   23 1     
   22   12   24 1     
   23   12   25 1     
   24   12   26 1     
   25   13   16 ar    
   26   13   27 1     
   27   14   16 ar    
   28   14   28 1     
   29   15   17 2     
   30   16   29 1     
@<TRIPOS>SUBSTRUCTURE
      1 RES1           1
@<TRIPOS>SET
DONOR_HYDROGENS      STATIC     ATOMS    <user>   **** ""
2 22 23
ATOM$RED        STATIC     ATOMS    COLORGROUP SYSTEM
2 22 23
@<TRIPOS>COMMENT
> <Gold.Version>
2022.3.0

> <Gold.Id.Protein>
unknown|3fmm_clean|pdb

> <Gold.Protein.RotatedTorsions>
[  523  520  519  517 ] final   85.12 input   59.99 | X-H torsion
[ 1700 1693 1691 1688 ] final  -47.27 input   59.98 | X-H torsion
[  491  486  485  482 ] final -130.83 input   59.97 | X-H torsion

> <Gold.Protein.ActiveResidues>
 TRP18   SER28   PRO29   VAL30   GLY31   SER32   GLY33   ALA34   TYR35   GLY36  
 SER37   VAL38   CYS39   ALA40   ARG49   VAL50   ALA51   VAL52   LYS53   LYS54  
 LEU55   GLU71   LEU72   LEU75   ILE84   GLY85   LEU86   LEU87   ASP88   VAL89  
 VAL102  TYR103  LEU104  VAL105  THR106  HIS107  LEU108  MET109  GLY110  ALA111 
 ASP112  LEU113  ASN115  PRO153  SER154  ASN155  LEU156  ALA157  VAL158  ASN159 
 LYS165  ILE166  LEU167  ASP168  PHE169 

> <Gold.Protein.RotatedAtoms>
   31.4503   13.4342   40.7427 H   0  0  0  0  0  0  0  0  0  0  0  0  # atno 491  bound_to 486 
   28.4111   11.0845   31.1780 H   0  0  0  0  0  0  0  0  0  0  0  0  # atno 523  bound_to 520 
   16.8495    6.4544   27.7455 H   0  0  0  0  0  0  0  0  0  0  0  0  # atno 1700 bound_to 1693
   29.2440   12.0016   32.2327 LP  0  0  0  0  0  0  0  0  0  0  0  0  # atno 5584 bound_to 520 
   28.9108   12.5692   30.7382 LP  0  0  0  0  0  0  0  0  0  0  0  0  # atno 5585 bound_to 520 
   16.9415    8.0156   27.2953 LP  0  0  0  0  0  0  0  0  0  0  0  0  # atno 5610 bound_to 1693
   15.5053    7.2389   27.2702 LP  0  0  0  0  0  0  0  0  0  0  0  0  # atno 5611 bound_to 1693

> <Gold.Score>
     Fitness  S(hb_ext) S(vdw_ext)  S(hb_int)    S(int)      intcor
     42.47       3.06      31.21       0.00      -3.51      -0.77

> <Gold.Goldscore.Fitness>
42.4663

> <Gold.Goldscore.Internal.Vdw>
-3.5149

> <Gold.Goldscore.Internal.Torsion>
-0.7566

> <Gold.Goldscore.External.Vdw>
31.2072

> <Gold.Goldscore.Internal.HBond>
0.0000

> <Gold.Goldscore.External.HBond>
3.0625

> <Gold.Goldscore.Internal.Correction>
-0.7653

> <Gold.Goldscore.Hbonds>
donor molecule, donor type, donor heavy atom, donor atom, acceptor molecule, acceptor atom, score
      P1  H  1737  1745       L1    11  1.00
      L1  H    10    23       P1  1704  0.53

> <Gold.Goldscore.Internal.Vdw.Weighted>
-3.5149

> <Gold.Goldscore.Internal.Torsion.Weighted>
-0.7566

> <Gold.Goldscore.External.Vdw.Weighted>
42.9099

> <Gold.Goldscore.Internal.HBond.Weighted>
0.0000

> <Gold.Goldscore.External.HBond.Weighted>
3.0625

> <Gold.Goldscore.Internal.Correction.Weighted>
-0.7653

> <Gold.Rescore>
     Score     S(PLP)   S(hbond)     S(cho)   S(metal)  DE(clash)   DE(tors)     intcor
     39.64     -35.65       2.00       0.00       0.00       0.00       1.00       ----

> <Gold.PLP.Fitness>
39.6408

> <Gold.PLP.PLP>
-35.6458

> <Gold.PLP.part.hbond>
-1.9985

> <Gold.PLP.part.metal>
0.0000

> <Gold.PLP.part.buried>
3.7223

> <Gold.PLP.part.nonpolar>
-39.9300

> <Gold.PLP.part.repulsive>
0.3280

> <Gold.PLP.ligand.clash>
0.0000

> <Gold.PLP.ligand.torsion>
1.0025

> <Gold.PLP.Chemscore.Hbond>
2.0000

> <Gold.PLP.Chemscore.CHOScore>
0.0000

> <Gold.PLP.Chemscore.Metal>
0.0000

> <Gold.Chemscore.Hbonds>
donor molecule, donor type, donor heavy atom, donor atom, acceptor molecule, acceptor atom, score
      L1  H    10    23       P1  1704  0.39
      P1  H  1737  1745       L1    11  0.78

> <Gold.PLP.Chemscore.Internal.Correction>
   9.000000E+99

