#       Name:                CT1002167954
#       Creating user name   hitesit
#       Creation time:       Sun Apr 16 02:21:20 2023


#       File generated by GOLD software.
#

@<TRIPOS>MOLECULE
CT1002167954|ligand_prepared|mol2|1|dock2
    29    30     1
SMALL
NO_CHARGES


@<TRIPOS>ATOM
      1 C1          22.6832  10.3523  31.5116 C.3            1 RES1               0.0000
      2 C2          21.6296  11.4783  31.4853 C.ar           1 RES1               0.0000
      3 C3          21.9064   9.0391  31.5299 C.2            1 RES1               0.0000
      4 C4          23.5468  10.5470  30.2702 C.2            1 RES1               0.0000
      5 C5          23.6097  10.3922  32.7491 C.3            1 RES1               0.0000
      6 C6          22.0131  12.8034  31.3016 C.ar           1 RES1               0.0000
      7 C7          20.2727  11.2078  31.6404 C.ar           1 RES1               0.0000
      8 N8          21.8826   8.3030  30.3820 N.am           1 RES1               0.0000
      9 O9          21.2912   8.6744  32.5242 O.2            1 RES1               0.0000
     10 N10         23.5021   9.5813  29.2990 N.am           1 RES1               0.0000
     11 O11         24.2528  11.5360  30.1168 O.2            1 RES1               0.0000
     12 C12         24.6089   9.2473  32.8042 C.3            1 RES1               0.0000
     13 C13         21.0740  13.8210  31.2712 C.ar           1 RES1               0.0000
     14 C14         19.3351  12.2269  31.6098 C.ar           1 RES1               0.0000
     15 C15         22.6858   8.4832  29.2847 C.2            1 RES1               0.0000
     16 C16         19.7345  13.5334  31.4248 C.ar           1 RES1               0.0000
     17 O17         22.6636   7.6883  28.3495 O.2            1 RES1               0.0000
     18 H18         24.1598  11.3413  32.7479 H              1 RES1               0.0000
     19 H19         22.9909  10.3645  33.6545 H              1 RES1               0.0000
     20 H20         23.0630  13.0492  31.1815 H              1 RES1               0.0000
     21 H21         19.9355  10.1875  31.7884 H              1 RES1               0.0000
     22 H22         21.2049   7.5488  30.3352 H              1 RES1               0.0000
     23 H23         24.1361   9.6912  28.5139 H              1 RES1               0.0000
     24 H24         25.2338   9.3231  33.6916 H              1 RES1               0.0000
     25 H25         24.0956   8.2884  32.8320 H              1 RES1               0.0000
     26 H26         25.2576   9.2593  31.9308 H              1 RES1               0.0000
     27 H27         21.3935  14.8477  31.1266 H              1 RES1               0.0000
     28 H28         18.2820  11.9960  31.7318 H              1 RES1               0.0000
     29 H29         18.9989  14.3306  31.4005 H              1 RES1               0.0000
@<TRIPOS>BOND
    1    1    2 1     
    2    1    3 1     
    3    1    4 1     
    4    1    5 1     
    5    2    6 ar    
    6    2    7 ar    
    7    3    8 1     
    8    3    9 2     
    9    4   10 1     
   10    4   11 2     
   11    5   12 1     
   12    5   18 1     
   13    5   19 1     
   14    6   13 ar    
   15    6   20 1     
   16    7   14 ar    
   17    7   21 1     
   18    8   15 1     
   19    8   22 1     
   20   10   15 1     
   21   10   23 1     
   22   12   24 1     
   23   12   25 1     
   24   12   26 1     
   25   13   16 ar    
   26   13   27 1     
   27   14   16 ar    
   28   14   28 1     
   29   15   17 2     
   30   16   29 1     
@<TRIPOS>SUBSTRUCTURE
      1 RES1           1
@<TRIPOS>SET
DONOR_HYDROGENS      STATIC     ATOMS    <user>   **** ""
2 22 23
ATOM$RED        STATIC     ATOMS    COLORGROUP SYSTEM
2 22 23
@<TRIPOS>COMMENT
> <Gold.Version>
2022.3.0

> <Gold.Id.Protein>
unknown|3fmm_clean|pdb

> <Gold.Protein.RotatedTorsions>
[  523  520  519  517 ] final   91.84 input   59.99 | X-H torsion
[ 1700 1693 1691 1688 ] final  159.27 input   59.98 | X-H torsion
[  491  486  485  482 ] final -146.68 input   59.97 | X-H torsion

> <Gold.Protein.ActiveResidues>
 TRP18   SER28   PRO29   VAL30   GLY31   SER32   GLY33   ALA34   TYR35   GLY36  
 SER37   VAL38   CYS39   ALA40   ARG49   VAL50   ALA51   VAL52   LYS53   LYS54  
 LEU55   GLU71   LEU72   LEU75   ILE84   GLY85   LEU86   LEU87   ASP88   VAL89  
 VAL102  TYR103  LEU104  VAL105  THR106  HIS107  LEU108  MET109  GLY110  ALA111 
 ASP112  LEU113  ASN115  PRO153  SER154  ASN155  LEU156  ALA157  VAL158  ASN159 
 LYS165  ILE166  LEU167  ASP168  PHE169 

> <Gold.Protein.RotatedAtoms>
   31.5984   13.4320   40.5311 H   0  0  0  0  0  0  0  0  0  0  0  0  # atno 491  bound_to 486 
   28.3918   11.1281   31.0790 H   0  0  0  0  0  0  0  0  0  0  0  0  # atno 523  bound_to 520 
   16.4282    8.1317   27.1708 H   0  0  0  0  0  0  0  0  0  0  0  0  # atno 1700 bound_to 1693
   29.2074   11.8999   32.2565 LP  0  0  0  0  0  0  0  0  0  0  0  0  # atno 5584 bound_to 520 
   28.9669   12.6270   30.8142 LP  0  0  0  0  0  0  0  0  0  0  0  0  # atno 5585 bound_to 520 
   15.6308    6.7392   27.4414 LP  0  0  0  0  0  0  0  0  0  0  0  0  # atno 5610 bound_to 1693
   17.2403    6.8258   27.7030 LP  0  0  0  0  0  0  0  0  0  0  0  0  # atno 5611 bound_to 1693

> <Gold.Score>
     Fitness  S(hb_ext) S(vdw_ext)  S(hb_int)    S(int)      intcor
     26.16       1.41      22.21       0.00      -5.79      -0.80

> <Gold.Goldscore.Fitness>
26.1634

> <Gold.Goldscore.Internal.Vdw>
-6.2119

> <Gold.Goldscore.Internal.Torsion>
-0.3776

> <Gold.Goldscore.External.Vdw>
22.2143

> <Gold.Goldscore.Internal.HBond>
0.0000

> <Gold.Goldscore.External.HBond>
1.4066

> <Gold.Goldscore.Internal.Correction>
-0.8016

> <Gold.Goldscore.Hbonds>
donor molecule, donor type, donor heavy atom, donor atom, acceptor molecule, acceptor atom, score
      L1  H     8    22       P1  1704  0.70

> <Gold.Goldscore.Internal.Vdw.Weighted>
-6.2119

> <Gold.Goldscore.Internal.Torsion.Weighted>
-0.3776

> <Gold.Goldscore.External.Vdw.Weighted>
30.5447

> <Gold.Goldscore.Internal.HBond.Weighted>
0.0000

> <Gold.Goldscore.External.HBond.Weighted>
1.4066

> <Gold.Goldscore.Internal.Correction.Weighted>
-0.8016

> <Gold.Rescore>
     Score     S(PLP)   S(hbond)     S(cho)   S(metal)  DE(clash)   DE(tors)     intcor
     26.53     -25.35       1.00       0.00       0.00       0.62       0.60       ----

> <Gold.PLP.Fitness>
26.5302

> <Gold.PLP.PLP>
-25.3545

> <Gold.PLP.part.hbond>
-1.2698

> <Gold.PLP.part.metal>
0.0000

> <Gold.PLP.part.buried>
14.7744

> <Gold.PLP.part.nonpolar>
-40.8754

> <Gold.PLP.part.repulsive>
1.0541

> <Gold.PLP.ligand.clash>
0.6218

> <Gold.PLP.ligand.torsion>
0.6012

> <Gold.PLP.Chemscore.Hbond>
1.0000

> <Gold.PLP.Chemscore.CHOScore>
0.0000

> <Gold.PLP.Chemscore.Metal>
0.0000

> <Gold.Chemscore.Hbonds>
donor molecule, donor type, donor heavy atom, donor atom, acceptor molecule, acceptor atom, score
      L1  H     8    22       P1  1704  0.29

> <Gold.PLP.Chemscore.Internal.Correction>
   9.000000E+99

