#       Name:                CT1002167954
#       Creating user name   hitesit
#       Creation time:       Sun Apr 16 02:21:26 2023


#       File generated by GOLD software.
#

@<TRIPOS>MOLECULE
CT1002167954|ligand_prepared|mol2|1|dock7
    29    30     1
SMALL
NO_CHARGES


@<TRIPOS>ATOM
      1 C1          23.7579   9.3374  31.8601 C.3            1 RES1               0.0000
      2 C2          24.9669   8.5810  32.4475 C.ar           1 RES1               0.0000
      3 C3          24.2356   9.9573  30.5503 C.2            1 RES1               0.0000
      4 C4          22.6493   8.3044  31.6916 C.2            1 RES1               0.0000
      5 C5          23.2242  10.4666  32.7721 C.3            1 RES1               0.0000
      6 C6          26.1670   8.5098  31.7465 C.ar           1 RES1               0.0000
      7 C7          24.8983   7.9530  33.6883 C.ar           1 RES1               0.0000
      8 N8          23.8047   9.3888  29.3880 N.am           1 RES1               0.0000
      9 O9          25.0103  10.9060  30.5374 O.2            1 RES1               0.0000
     10 N10         22.2400   8.0035  30.4189 N.am           1 RES1               0.0000
     11 O11         22.1380   7.7360  32.6486 O.2            1 RES1               0.0000
     12 C12         22.0470  11.2267  32.1817 C.3            1 RES1               0.0000
     13 C13         27.2598   7.8376  32.2681 C.ar           1 RES1               0.0000
     14 C14         25.9924   7.2811  34.2080 C.ar           1 RES1               0.0000
     15 C15         22.7887   8.4763  29.2580 C.2            1 RES1               0.0000
     16 C16         27.1735   7.2232  33.4992 C.ar           1 RES1               0.0000
     17 O17         22.4017   8.1170  28.1497 O.2            1 RES1               0.0000
     18 H18         22.9180  10.0309  33.7311 H              1 RES1               0.0000
     19 H19         24.0381  11.1749  32.9702 H              1 RES1               0.0000
     20 H20         26.2530   8.9851  30.7750 H              1 RES1               0.0000
     21 H21         23.9790   7.9846  34.2631 H              1 RES1               0.0000
     22 H22         24.2820   9.6678  28.5367 H              1 RES1               0.0000
     23 H23         21.4534   7.3684  30.3286 H              1 RES1               0.0000
     24 H24         21.7117  12.0071  32.8615 H              1 RES1               0.0000
     25 H25         22.3234  11.6942  31.2389 H              1 RES1               0.0000
     26 H26         21.2099  10.5570  31.9953 H              1 RES1               0.0000
     27 H27         28.1867   7.7938  31.7057 H              1 RES1               0.0000
     28 H28         25.9197   6.7985  35.1770 H              1 RES1               0.0000
     29 H29         28.0298   6.6970  33.9078 H              1 RES1               0.0000
@<TRIPOS>BOND
    1    1    2 1     
    2    1    3 1     
    3    1    4 1     
    4    1    5 1     
    5    2    6 ar    
    6    2    7 ar    
    7    3    8 1     
    8    3    9 2     
    9    4   10 1     
   10    4   11 2     
   11    5   12 1     
   12    5   18 1     
   13    5   19 1     
   14    6   13 ar    
   15    6   20 1     
   16    7   14 ar    
   17    7   21 1     
   18    8   15 1     
   19    8   22 1     
   20   10   15 1     
   21   10   23 1     
   22   12   24 1     
   23   12   25 1     
   24   12   26 1     
   25   13   16 ar    
   26   13   27 1     
   27   14   16 ar    
   28   14   28 1     
   29   15   17 2     
   30   16   29 1     
@<TRIPOS>SUBSTRUCTURE
      1 RES1           1
@<TRIPOS>SET
DONOR_HYDROGENS      STATIC     ATOMS    <user>   **** ""
2 22 23
ATOM$RED        STATIC     ATOMS    COLORGROUP SYSTEM
2 22 23
@<TRIPOS>COMMENT
> <Gold.Version>
2022.3.0

> <Gold.Id.Protein>
unknown|3fmm_clean|pdb

> <Gold.Protein.RotatedTorsions>
[  523  520  519  517 ] final  104.68 input   59.99 | X-H torsion
[ 1700 1693 1691 1688 ] final  -25.43 input   59.98 | X-H torsion
[  491  486  485  482 ] final  150.97 input   59.97 | X-H torsion

> <Gold.Protein.ActiveResidues>
 TRP18   SER28   PRO29   VAL30   GLY31   SER32   GLY33   ALA34   TYR35   GLY36  
 SER37   VAL38   CYS39   ALA40   ARG49   VAL50   ALA51   VAL52   LYS53   LYS54  
 LEU55   GLU71   LEU72   LEU75   ILE84   GLY85   LEU86   LEU87   ASP88   VAL89  
 VAL102  TYR103  LEU104  VAL105  THR106  HIS107  LEU108  MET109  GLY110  ALA111 
 ASP112  LEU113  ASN115  PRO153  SER154  ASN155  LEU156  ALA157  VAL158  ASN159 
 LYS165  ILE166  LEU167  ASP168  PHE169 

> <Gold.Protein.RotatedAtoms>
   31.6120   13.0856   39.6258 H   0  0  0  0  0  0  0  0  0  0  0  0  # atno 491  bound_to 486 
   28.3727   11.2396   30.9029 H   0  0  0  0  0  0  0  0  0  0  0  0  # atno 523  bound_to 520 
   16.5132    6.3448   27.7181 H   0  0  0  0  0  0  0  0  0  0  0  0  # atno 1700 bound_to 1693
   29.1246   11.7064   32.2682 LP  0  0  0  0  0  0  0  0  0  0  0  0  # atno 5584 bound_to 520 
   29.0690   12.7082   30.9798 LP  0  0  0  0  0  0  0  0  0  0  0  0  # atno 5585 bound_to 520 
   17.1945    7.7897   27.4077 LP  0  0  0  0  0  0  0  0  0  0  0  0  # atno 5610 bound_to 1693
   15.5910    7.5753   27.1853 LP  0  0  0  0  0  0  0  0  0  0  0  0  # atno 5611 bound_to 1693

> <Gold.Score>
     Fitness  S(hb_ext) S(vdw_ext)  S(hb_int)    S(int)      intcor
     33.83       1.35      25.92       0.00      -3.16      -0.79

> <Gold.Goldscore.Fitness>
33.8333

> <Gold.Goldscore.Internal.Vdw>
-3.5759

> <Gold.Goldscore.Internal.Torsion>
-0.3689

> <Gold.Goldscore.External.Vdw>
25.9193

> <Gold.Goldscore.Internal.HBond>
0.0000

> <Gold.Goldscore.External.HBond>
1.3530

> <Gold.Goldscore.Internal.Correction>
-0.7860

> <Gold.Goldscore.Hbonds>
donor molecule, donor type, donor heavy atom, donor atom, acceptor molecule, acceptor atom, score
      P1  H  1737  1745       L1    11  0.03
      L1  H    10    23       P1  1704  0.65

> <Gold.Goldscore.Internal.Vdw.Weighted>
-3.5759

> <Gold.Goldscore.Internal.Torsion.Weighted>
-0.3689

> <Gold.Goldscore.External.Vdw.Weighted>
35.6391

> <Gold.Goldscore.Internal.HBond.Weighted>
0.0000

> <Gold.Goldscore.External.HBond.Weighted>
1.3530

> <Gold.Goldscore.Internal.Correction.Weighted>
-0.7860

> <Gold.Rescore>
     Score     S(PLP)   S(hbond)     S(cho)   S(metal)  DE(clash)   DE(tors)     intcor
     33.44     -35.65       0.00       0.00       0.00       1.81       0.20       ----

> <Gold.PLP.Fitness>
33.4397

> <Gold.PLP.PLP>
-35.6532

> <Gold.PLP.part.hbond>
-0.2556

> <Gold.PLP.part.metal>
0.0000

> <Gold.PLP.part.buried>
4.3195

> <Gold.PLP.part.nonpolar>
-43.1435

> <Gold.PLP.part.repulsive>
2.7682

> <Gold.PLP.ligand.clash>
1.8135

> <Gold.PLP.ligand.torsion>
0.2000

> <Gold.PLP.Chemscore.Hbond>
0.0000

> <Gold.PLP.Chemscore.CHOScore>
0.0000

> <Gold.PLP.Chemscore.Metal>
0.0000

> <Gold.Chemscore.Hbonds>
donor molecule, donor type, donor heavy atom, donor atom, acceptor molecule, acceptor atom, score
      L1  H    10    23       P1  1704  0.23

> <Gold.PLP.Chemscore.Internal.Correction>
   9.000000E+99

