#       Name:                CT1002167954
#       Creating user name   hitesit
#       Creation time:       Sun Apr 16 02:21:21 2023


#       File generated by GOLD software.
#

@<TRIPOS>MOLECULE
CT1002167954|ligand_prepared|mol2|1|dock3
    29    30     1
SMALL
NO_CHARGES


@<TRIPOS>ATOM
      1 C1          23.4059   9.6723  31.7367 C.3            1 RES1               0.0000
      2 C2          24.7977   9.1055  32.0836 C.ar           1 RES1               0.0000
      3 C3          23.4693  10.0977  30.2727 C.2            1 RES1               0.0000
      4 C4          22.4080   8.5541  32.0170 C.2            1 RES1               0.0000
      5 C5          23.0008  10.8985  32.5875 C.3            1 RES1               0.0000
      6 C6          25.6388   8.6298  31.0821 C.ar           1 RES1               0.0000
      7 C7          25.2547   9.0543  33.3978 C.ar           1 RES1               0.0000
      8 N8          22.8233   9.3176  29.3595 N.am           1 RES1               0.0000
      9 O9          24.1093  11.0807  29.9201 O.2            1 RES1               0.0000
     10 N10         21.7264   8.0206  30.9546 N.am           1 RES1               0.0000
     11 O11         22.2179   8.1189  33.1460 O.2            1 RES1               0.0000
     12 C12         21.7030  11.5530  32.1407 C.3            1 RES1               0.0000
     13 C13         26.8926   8.1240  31.3832 C.ar           1 RES1               0.0000
     14 C14         26.5088   8.5479  33.6967 C.ar           1 RES1               0.0000
     15 C15         21.9113   8.3306  29.6348 C.2            1 RES1               0.0000
     16 C16         27.3286   8.0831  32.6904 C.ar           1 RES1               0.0000
     17 O17         21.2987   7.7683  28.7317 O.2            1 RES1               0.0000
     18 H18         22.8959  10.5837  33.6331 H              1 RES1               0.0000
     19 H19         23.8057  11.6424  32.5404 H              1 RES1               0.0000
     20 H20         25.3120   8.6516  30.0479 H              1 RES1               0.0000
     21 H21         24.6264   9.4135  34.2058 H              1 RES1               0.0000
     22 H22         23.0383   9.4833  28.3814 H              1 RES1               0.0000
     23 H23         21.0152   7.3284  31.1674 H              1 RES1               0.0000
     24 H24         21.4652  12.4076  32.7707 H              1 RES1               0.0000
     25 H25         21.7803  11.9009  31.1127 H              1 RES1               0.0000
     26 H26         20.8759  10.8485  32.1989 H              1 RES1               0.0000
     27 H27         27.5334   7.7582  30.5877 H              1 RES1               0.0000
     28 H28         26.8475   8.5171  34.7270 H              1 RES1               0.0000
     29 H29         28.3109   7.6872  32.9259 H              1 RES1               0.0000
@<TRIPOS>BOND
    1    1    2 1     
    2    1    3 1     
    3    1    4 1     
    4    1    5 1     
    5    2    6 ar    
    6    2    7 ar    
    7    3    8 1     
    8    3    9 2     
    9    4   10 1     
   10    4   11 2     
   11    5   12 1     
   12    5   18 1     
   13    5   19 1     
   14    6   13 ar    
   15    6   20 1     
   16    7   14 ar    
   17    7   21 1     
   18    8   15 1     
   19    8   22 1     
   20   10   15 1     
   21   10   23 1     
   22   12   24 1     
   23   12   25 1     
   24   12   26 1     
   25   13   16 ar    
   26   13   27 1     
   27   14   16 ar    
   28   14   28 1     
   29   15   17 2     
   30   16   29 1     
@<TRIPOS>SUBSTRUCTURE
      1 RES1           1
@<TRIPOS>SET
DONOR_HYDROGENS      STATIC     ATOMS    <user>   **** ""
2 22 23
ATOM$RED        STATIC     ATOMS    COLORGROUP SYSTEM
2 22 23
@<TRIPOS>COMMENT
> <Gold.Version>
2022.3.0

> <Gold.Id.Protein>
unknown|3fmm_clean|pdb

> <Gold.Protein.RotatedTorsions>
[  523  520  519  517 ] final   82.33 input   59.99 | X-H torsion
[ 1700 1693 1691 1688 ] final -139.90 input   59.98 | X-H torsion
[  491  486  485  482 ] final  153.55 input   59.97 | X-H torsion

> <Gold.Protein.ActiveResidues>
 TRP18   SER28   PRO29   VAL30   GLY31   SER32   GLY33   ALA34   TYR35   GLY36  
 SER37   VAL38   CYS39   ALA40   ARG49   VAL50   ALA51   VAL52   LYS53   LYS54  
 LEU55   GLU71   LEU72   LEU75   ILE84   GLY85   LEU86   LEU87   ASP88   VAL89  
 VAL102  TYR103  LEU104  VAL105  THR106  HIS107  LEU108  MET109  GLY110  ALA111 
 ASP112  LEU113  ASN115  PRO153  SER154  ASN155  LEU156  ALA157  VAL158  ASN159 
 LYS165  ILE166  LEU167  ASP168  PHE169 

> <Gold.Protein.RotatedAtoms>
   31.6302   13.1076   39.6567 H   0  0  0  0  0  0  0  0  0  0  0  0  # atno 491  bound_to 486 
   28.4209   11.0696   31.2199 H   0  0  0  0  0  0  0  0  0  0  0  0  # atno 523  bound_to 520 
   17.2363    7.7153   27.4391 H   0  0  0  0  0  0  0  0  0  0  0  0  # atno 1700 bound_to 1693
   29.2576   12.0434   32.2194 LP  0  0  0  0  0  0  0  0  0  0  0  0  # atno 5584 bound_to 520 
   28.8873   12.5425   30.7093 LP  0  0  0  0  0  0  0  0  0  0  0  0  # atno 5585 bound_to 520 
   15.6327    7.6542   27.1693 LP  0  0  0  0  0  0  0  0  0  0  0  0  # atno 5610 bound_to 1693
   16.4244    6.3302   27.7049 LP  0  0  0  0  0  0  0  0  0  0  0  0  # atno 5611 bound_to 1693

> <Gold.Score>
     Fitness  S(hb_ext) S(vdw_ext)  S(hb_int)    S(int)      intcor
     38.70       0.00      28.93       0.00      -1.08      -0.80

> <Gold.Goldscore.Fitness>
38.6951

> <Gold.Goldscore.Internal.Vdw>
-1.4459

> <Gold.Goldscore.Internal.Torsion>
-0.4386

> <Gold.Goldscore.External.Vdw>
28.9294

> <Gold.Goldscore.Internal.HBond>
0.0000

> <Gold.Goldscore.External.HBond>
0.0000

> <Gold.Goldscore.Internal.Correction>
-0.8016

> <Gold.Goldscore.Internal.Vdw.Weighted>
-1.4459

> <Gold.Goldscore.Internal.Torsion.Weighted>
-0.4386

> <Gold.Goldscore.External.Vdw.Weighted>
39.7779

> <Gold.Goldscore.Internal.HBond.Weighted>
0.0000

> <Gold.Goldscore.External.HBond.Weighted>
0.0000

> <Gold.Goldscore.Internal.Correction.Weighted>
-0.8016

> <Gold.Rescore>
     Score     S(PLP)   S(hbond)     S(cho)   S(metal)  DE(clash)   DE(tors)     intcor
     35.76     -36.17       0.63       0.00       0.00       1.75       0.28       ----

> <Gold.PLP.Fitness>
35.7606

> <Gold.PLP.PLP>
-36.1739

> <Gold.PLP.part.hbond>
-1.0000

> <Gold.PLP.part.metal>
0.0000

> <Gold.PLP.part.buried>
7.4395

> <Gold.PLP.part.nonpolar>
-43.6564

> <Gold.PLP.part.repulsive>
1.9017

> <Gold.PLP.ligand.clash>
1.7480

> <Gold.PLP.ligand.torsion>
0.2803

> <Gold.PLP.Chemscore.Hbond>
0.6318

> <Gold.PLP.Chemscore.CHOScore>
0.0000

> <Gold.PLP.Chemscore.Metal>
0.0000

> <Gold.PLP.Chemscore.Internal.Correction>
   9.000000E+99

