#       Name:                CT1002167954
#       Creating user name   hitesit
#       Creation time:       Sun Apr 16 02:21:25 2023


#       File generated by GOLD software.
#

@<TRIPOS>MOLECULE
CT1002167954|ligand_prepared|mol2|1|dock6
    29    30     1
SMALL
NO_CHARGES


@<TRIPOS>ATOM
      1 C1          23.7149   9.8603  31.6818 C.3            1 RES1               0.0000
      2 C2          22.2728  10.0721  31.1777 C.ar           1 RES1               0.0000
      3 C3          23.9990   8.3667  31.5522 C.2            1 RES1               0.0000
      4 C4          24.6048  10.7407  30.8114 C.2            1 RES1               0.0000
      5 C5          23.9285  10.2748  33.1563 C.3            1 RES1               0.0000
      6 C6          21.4806  11.0887  31.7028 C.ar           1 RES1               0.0000
      7 C7          21.7226   9.2621  30.1878 C.ar           1 RES1               0.0000
      8 N8          24.8284   7.9663  30.5464 N.am           1 RES1               0.0000
      9 O9          23.4722   7.5491  32.2966 O.2            1 RES1               0.0000
     10 N10         25.5068  10.1236  29.9847 N.am           1 RES1               0.0000
     11 O11         24.5214  11.9627  30.8217 O.2            1 RES1               0.0000
     12 C12         25.2330   9.7696  33.7524 C.3            1 RES1               0.0000
     13 C13         20.1864  11.2902  31.2527 C.ar           1 RES1               0.0000
     14 C14         20.4279   9.4652  29.7393 C.ar           1 RES1               0.0000
     15 C15         25.6377   8.7756  29.7902 C.2            1 RES1               0.0000
     16 C16         19.6593  10.4790  30.2705 C.ar           1 RES1               0.0000
     17 O17         26.4353   8.2978  28.9885 O.2            1 RES1               0.0000
     18 H18         23.9112  11.3697  33.2213 H              1 RES1               0.0000
     19 H19         23.0942   9.8901  33.7557 H              1 RES1               0.0000
     20 H20         21.8775  11.7355  32.4782 H              1 RES1               0.0000
     21 H21         22.3084   8.4577  29.7563 H              1 RES1               0.0000
     22 H22         24.8487   6.9733  30.3370 H              1 RES1               0.0000
     23 H23         26.1394  10.7250  29.4665 H              1 RES1               0.0000
     24 H24         25.3329  10.0884  34.7878 H              1 RES1               0.0000
     25 H25         25.2733   8.6826  33.7270 H              1 RES1               0.0000
     26 H26         26.0855  10.1535  33.1959 H              1 RES1               0.0000
     27 H27         19.5852  12.0886  31.6750 H              1 RES1               0.0000
     28 H28         20.0170   8.8240  28.9665 H              1 RES1               0.0000
     29 H29         18.6456  10.6373  29.9178 H              1 RES1               0.0000
@<TRIPOS>BOND
    1    1    2 1     
    2    1    3 1     
    3    1    4 1     
    4    1    5 1     
    5    2    6 ar    
    6    2    7 ar    
    7    3    8 1     
    8    3    9 2     
    9    4   10 1     
   10    4   11 2     
   11    5   12 1     
   12    5   18 1     
   13    5   19 1     
   14    6   13 ar    
   15    6   20 1     
   16    7   14 ar    
   17    7   21 1     
   18    8   15 1     
   19    8   22 1     
   20   10   15 1     
   21   10   23 1     
   22   12   24 1     
   23   12   25 1     
   24   12   26 1     
   25   13   16 ar    
   26   13   27 1     
   27   14   16 ar    
   28   14   28 1     
   29   15   17 2     
   30   16   29 1     
@<TRIPOS>SUBSTRUCTURE
      1 RES1           1
@<TRIPOS>SET
DONOR_HYDROGENS      STATIC     ATOMS    <user>   **** ""
2 22 23
ATOM$RED        STATIC     ATOMS    COLORGROUP SYSTEM
2 22 23
@<TRIPOS>COMMENT
> <Gold.Version>
2022.3.0

> <Gold.Id.Protein>
unknown|3fmm_clean|pdb

> <Gold.Protein.RotatedTorsions>
[  523  520  519  517 ] final  128.50 input   59.99 | X-H torsion
[ 1700 1693 1691 1688 ] final -111.89 input   59.98 | X-H torsion
[  491  486  485  482 ] final   68.30 input   59.97 | X-H torsion

> <Gold.Protein.ActiveResidues>
 TRP18   SER28   PRO29   VAL30   GLY31   SER32   GLY33   ALA34   TYR35   GLY36  
 SER37   VAL38   CYS39   ALA40   ARG49   VAL50   ALA51   VAL52   LYS53   LYS54  
 LEU55   GLU71   LEU72   LEU75   ILE84   GLY85   LEU86   LEU87   ASP88   VAL89  
 VAL102  TYR103  LEU104  VAL105  THR106  HIS107  LEU108  MET109  GLY110  ALA111 
 ASP112  LEU113  ASN115  PRO153  SER154  ASN155  LEU156  ALA157  VAL158  ASN159 
 LYS165  ILE166  LEU167  ASP168  PHE169 

> <Gold.Protein.RotatedAtoms>
   30.5650   12.4494   39.4554 H   0  0  0  0  0  0  0  0  0  0  0  0  # atno 491  bound_to 486 
   28.4007   11.5262   30.6457 H   0  0  0  0  0  0  0  0  0  0  0  0  # atno 523  bound_to 520 
   17.3554    7.3025   27.5832 H   0  0  0  0  0  0  0  0  0  0  0  0  # atno 1700 bound_to 1693
   28.9389   11.3778   32.1739 LP  0  0  0  0  0  0  0  0  0  0  0  0  # atno 5584 bound_to 520 
   29.2264   12.7480   31.3333 LP  0  0  0  0  0  0  0  0  0  0  0  0  # atno 5585 bound_to 520 
   15.9482    7.9814   27.1282 LP  0  0  0  0  0  0  0  0  0  0  0  0  # atno 5610 bound_to 1693
   15.9890    6.4188   27.6007 LP  0  0  0  0  0  0  0  0  0  0  0  0  # atno 5611 bound_to 1693

> <Gold.Score>
     Fitness  S(hb_ext) S(vdw_ext)  S(hb_int)    S(int)      intcor
     38.32       0.42      28.09       0.00      -0.73      -0.79

> <Gold.Goldscore.Fitness>
38.3206

> <Gold.Goldscore.Internal.Vdw>
-0.8518

> <Gold.Goldscore.Internal.Torsion>
-0.6676

> <Gold.Goldscore.External.Vdw>
28.0939

> <Gold.Goldscore.Internal.HBond>
0.0000

> <Gold.Goldscore.External.HBond>
0.4249

> <Gold.Goldscore.Internal.Correction>
-0.7860

> <Gold.Goldscore.Hbonds>
donor molecule, donor type, donor heavy atom, donor atom, acceptor molecule, acceptor atom, score
      P1  H  1737  1745       L1     9  0.07
      L1  H     8    22       P1  1740  0.14

> <Gold.Goldscore.Internal.Vdw.Weighted>
-0.8518

> <Gold.Goldscore.Internal.Torsion.Weighted>
-0.6676

> <Gold.Goldscore.External.Vdw.Weighted>
38.6291

> <Gold.Goldscore.Internal.HBond.Weighted>
0.0000

> <Gold.Goldscore.External.HBond.Weighted>
0.4249

> <Gold.Goldscore.Internal.Correction.Weighted>
-0.7860

> <Gold.Rescore>
     Score     S(PLP)   S(hbond)     S(cho)   S(metal)  DE(clash)   DE(tors)     intcor
     22.15     -18.87       1.67       0.00       0.00       0.00       0.86       ----

> <Gold.PLP.Fitness>
22.1529

> <Gold.PLP.PLP>
-18.8739

> <Gold.PLP.part.hbond>
-2.0000

> <Gold.PLP.part.metal>
0.0000

> <Gold.PLP.part.buried>
3.7316

> <Gold.PLP.part.nonpolar>
-23.8748

> <Gold.PLP.part.repulsive>
2.7370

> <Gold.PLP.ligand.clash>
0.0000

> <Gold.PLP.ligand.torsion>
0.8597

> <Gold.PLP.Chemscore.Hbond>
1.6661

> <Gold.PLP.Chemscore.CHOScore>
0.0000

> <Gold.PLP.Chemscore.Metal>
0.0000

> <Gold.Chemscore.Hbonds>
donor molecule, donor type, donor heavy atom, donor atom, acceptor molecule, acceptor atom, score
      L1  H     8    22       P1  1740  0.67

> <Gold.PLP.Chemscore.Internal.Correction>
   9.000000E+99

