#       Name:                CT1002167954
#       Creating user name   hitesit
#       Creation time:       Sun Apr 16 02:21:23 2023


#       File generated by GOLD software.
#

@<TRIPOS>MOLECULE
CT1002167954|ligand_prepared|mol2|1|dock4
    29    30     1
SMALL
NO_CHARGES


@<TRIPOS>ATOM
      1 C1          22.7597  10.5361  31.4571 C.3            1 RES1               0.0000
      2 C2          22.0427  11.8789  31.2091 C.ar           1 RES1               0.0000
      3 C3          21.6624   9.4971  31.6684 C.2            1 RES1               0.0000
      4 C4          23.6280  10.2831  30.2297 C.2            1 RES1               0.0000
      5 C5          23.6792  10.5391  32.7005 C.3            1 RES1               0.0000
      6 C6          22.7702  13.0239  30.8987 C.ar           1 RES1               0.0000
      7 C7          20.6566  11.9875  31.2845 C.ar           1 RES1               0.0000
      8 N8          21.4294   8.6101  30.6591 N.am           1 RES1               0.0000
      9 O9          20.9852   9.4814  32.6889 O.2            1 RES1               0.0000
     10 N10         23.3162   9.2135  29.4320 N.am           1 RES1               0.0000
     11 O11         24.5694  11.0101  29.9370 O.2            1 RES1               0.0000
     12 C12         24.2060   9.1632  33.0769 C.3            1 RES1               0.0000
     13 C13         22.1350  14.2331  30.6689 C.ar           1 RES1               0.0000
     14 C14         20.0234  13.1978  31.0546 C.ar           1 RES1               0.0000
     15 C15         22.2375   8.3836  29.5740 C.2            1 RES1               0.0000
     16 C16         20.7614  14.3208  30.7463 C.ar           1 RES1               0.0000
     17 O17         21.9931   7.4763  28.7840 O.2            1 RES1               0.0000
     18 H18         24.5312  11.2028  32.5080 H              1 RES1               0.0000
     19 H19         23.1210  10.9483  33.5516 H              1 RES1               0.0000
     20 H20         23.8522  12.9748  30.8358 H              1 RES1               0.0000
     21 H21         20.0559  11.1174  31.5266 H              1 RES1               0.0000
     22 H22         20.5752   8.0647  30.7162 H              1 RES1               0.0000
     23 H23         23.9465   9.0176  28.6608 H              1 RES1               0.0000
     24 H24         24.8453   9.2220  33.9552 H              1 RES1               0.0000
     25 H25         23.3858   8.4838  33.2996 H              1 RES1               0.0000
     26 H26         24.7877   8.7368  32.2622 H              1 RES1               0.0000
     27 H27         22.7204  15.1143  30.4280 H              1 RES1               0.0000
     28 H28         18.9421  13.2623  31.1172 H              1 RES1               0.0000
     29 H29         20.2640  15.2680  30.5659 H              1 RES1               0.0000
@<TRIPOS>BOND
    1    1    2 1     
    2    1    3 1     
    3    1    4 1     
    4    1    5 1     
    5    2    6 ar    
    6    2    7 ar    
    7    3    8 1     
    8    3    9 2     
    9    4   10 1     
   10    4   11 2     
   11    5   12 1     
   12    5   18 1     
   13    5   19 1     
   14    6   13 ar    
   15    6   20 1     
   16    7   14 ar    
   17    7   21 1     
   18    8   15 1     
   19    8   22 1     
   20   10   15 1     
   21   10   23 1     
   22   12   24 1     
   23   12   25 1     
   24   12   26 1     
   25   13   16 ar    
   26   13   27 1     
   27   14   16 ar    
   28   14   28 1     
   29   15   17 2     
   30   16   29 1     
@<TRIPOS>SUBSTRUCTURE
      1 RES1           1
@<TRIPOS>SET
DONOR_HYDROGENS      STATIC     ATOMS    <user>   **** ""
2 22 23
ATOM$RED        STATIC     ATOMS    COLORGROUP SYSTEM
2 22 23
@<TRIPOS>COMMENT
> <Gold.Version>
2022.3.0

> <Gold.Id.Protein>
unknown|3fmm_clean|pdb

> <Gold.Protein.RotatedTorsions>
[  523  520  519  517 ] final   55.95 input   59.99 | X-H torsion
[ 1700 1693 1691 1688 ] final  162.73 input   59.98 | X-H torsion
[  491  486  485  482 ] final   12.42 input   59.97 | X-H torsion

> <Gold.Protein.ActiveResidues>
 TRP18   SER28   PRO29   VAL30   GLY31   SER32   GLY33   ALA34   TYR35   GLY36  
 SER37   VAL38   CYS39   ALA40   ARG49   VAL50   ALA51   VAL52   LYS53   LYS54  
 LEU55   GLU71   LEU72   LEU75   ILE84   GLY85   LEU86   LEU87   ASP88   VAL89  
 VAL102  TYR103  LEU104  VAL105  THR106  HIS107  LEU108  MET109  GLY110  ALA111 
 ASP112  LEU113  ASN115  PRO153  SER154  ASN155  LEU156  ALA157  VAL158  ASN159 
 LYS165  ILE166  LEU167  ASP168  PHE169 

> <Gold.Protein.RotatedAtoms>
   30.0711   12.4642   40.1807 H   0  0  0  0  0  0  0  0  0  0  0  0  # atno 491  bound_to 486 
   28.5602   11.0273   31.6213 H   0  0  0  0  0  0  0  0  0  0  0  0  # atno 523  bound_to 520 
   16.4839    8.1331   27.1803 H   0  0  0  0  0  0  0  0  0  0  0  0  # atno 1700 bound_to 1693
   29.3357   12.4061   32.0018 LP  0  0  0  0  0  0  0  0  0  0  0  0  # atno 5584 bound_to 520 
   28.6689   12.2223   30.5225 LP  0  0  0  0  0  0  0  0  0  0  0  0  # atno 5585 bound_to 520 
   15.6040    6.7858   27.4227 LP  0  0  0  0  0  0  0  0  0  0  0  0  # atno 5610 bound_to 1693
   17.2111    6.7778   27.7120 LP  0  0  0  0  0  0  0  0  0  0  0  0  # atno 5611 bound_to 1693

> <Gold.Score>
     Fitness  S(hb_ext) S(vdw_ext)  S(hb_int)    S(int)      intcor
     31.05       0.00      25.92       0.00      -4.59      -0.80

> <Gold.Goldscore.Fitness>
31.0489

> <Gold.Goldscore.Internal.Vdw>
-4.8828

> <Gold.Goldscore.Internal.Torsion>
-0.5123

> <Gold.Goldscore.External.Vdw>
25.9217

> <Gold.Goldscore.Internal.HBond>
0.0000

> <Gold.Goldscore.External.HBond>
0.0000

> <Gold.Goldscore.Internal.Correction>
-0.8016

> <Gold.Goldscore.Internal.Vdw.Weighted>
-4.8828

> <Gold.Goldscore.Internal.Torsion.Weighted>
-0.5123

> <Gold.Goldscore.External.Vdw.Weighted>
35.6424

> <Gold.Goldscore.Internal.HBond.Weighted>
0.0000

> <Gold.Goldscore.External.HBond.Weighted>
0.0000

> <Gold.Goldscore.Internal.Correction.Weighted>
-0.8016

> <Gold.Rescore>
     Score     S(PLP)   S(hbond)     S(cho)   S(metal)  DE(clash)   DE(tors)     intcor
     31.84     -33.67       0.00       0.00       0.00       0.00       0.91       ----

> <Gold.PLP.Fitness>
31.8409

> <Gold.PLP.PLP>
-33.6690

> <Gold.PLP.part.hbond>
0.0000

> <Gold.PLP.part.metal>
0.0000

> <Gold.PLP.part.buried>
0.9965

> <Gold.PLP.part.nonpolar>
-38.6718

> <Gold.PLP.part.repulsive>
2.9846

> <Gold.PLP.ligand.clash>
0.0000

> <Gold.PLP.ligand.torsion>
0.9141

> <Gold.PLP.Chemscore.Hbond>
0.0000

> <Gold.PLP.Chemscore.CHOScore>
0.0000

> <Gold.PLP.Chemscore.Metal>
0.0000

> <Gold.PLP.Chemscore.Internal.Correction>
   9.000000E+99

