#       Name:                CT1002167954
#       Creating user name   hitesit
#       Creation time:       Sun Apr 16 02:21:19 2023


#       File generated by GOLD software.
#

@<TRIPOS>MOLECULE
CT1002167954|ligand_prepared|mol2|1|dock1
    29    30     1
SMALL
NO_CHARGES


@<TRIPOS>ATOM
      1 C1          23.5829   9.8636  31.3385 C.3            1 RES1               0.0000
      2 C2          24.7465   9.7446  32.3439 C.ar           1 RES1               0.0000
      3 C3          22.3197  10.0741  32.1681 C.2            1 RES1               0.0000
      4 C4          23.9281  11.0330  30.4231 C.2            1 RES1               0.0000
      5 C5          23.3881   8.6080  30.4569 C.3            1 RES1               0.0000
      6 C6          24.6822  10.3798  33.5805 C.ar           1 RES1               0.0000
      7 C7          25.8873   9.0023  32.0507 C.ar           1 RES1               0.0000
      8 N8          21.7723  11.3231  32.1798 N.am           1 RES1               0.0000
      9 O9          21.8338   9.1677  32.8334 O.2            1 RES1               0.0000
     10 N10         23.1278  12.1442  30.4715 N.am           1 RES1               0.0000
     11 O11         24.8956  11.0087  29.6724 O.2            1 RES1               0.0000
     12 C12         22.1592   8.6708  29.5636 C.3            1 RES1               0.0000
     13 C13         25.7195  10.2743  34.4922 C.ar           1 RES1               0.0000
     14 C14         26.9237   8.8983  32.9638 C.ar           1 RES1               0.0000
     15 C15         22.0836  12.3543  31.3305 C.2            1 RES1               0.0000
     16 C16         26.8407   9.5333  34.1847 C.ar           1 RES1               0.0000
     17 O17         21.4451  13.4027  31.3508 O.2            1 RES1               0.0000
     18 H18         24.2765   8.4778  29.8267 H              1 RES1               0.0000
     19 H19         23.3069   7.7287  31.1078 H              1 RES1               0.0000
     20 H20         23.8089  10.9693  33.8392 H              1 RES1               0.0000
     21 H21         25.9750   8.4951  31.0959 H              1 RES1               0.0000
     22 H22         21.0663  11.5075  32.8854 H              1 RES1               0.0000
     23 H23         23.3289  12.8832  29.8053 H              1 RES1               0.0000
     24 H24         22.0697   7.7657  28.9666 H              1 RES1               0.0000
     25 H25         21.2545   8.7750  30.1589 H              1 RES1               0.0000
     26 H26         22.2183   9.5196  28.8854 H              1 RES1               0.0000
     27 H27         25.6499  10.7771  35.4511 H              1 RES1               0.0000
     28 H28         27.8044   8.3146  32.7173 H              1 RES1               0.0000
     29 H29         27.6530   9.4505  34.8992 H              1 RES1               0.0000
@<TRIPOS>BOND
    1    1    2 1     
    2    1    3 1     
    3    1    4 1     
    4    1    5 1     
    5    2    6 ar    
    6    2    7 ar    
    7    3    8 1     
    8    3    9 2     
    9    4   10 1     
   10    4   11 2     
   11    5   12 1     
   12    5   18 1     
   13    5   19 1     
   14    6   13 ar    
   15    6   20 1     
   16    7   14 ar    
   17    7   21 1     
   18    8   15 1     
   19    8   22 1     
   20   10   15 1     
   21   10   23 1     
   22   12   24 1     
   23   12   25 1     
   24   12   26 1     
   25   13   16 ar    
   26   13   27 1     
   27   14   16 ar    
   28   14   28 1     
   29   15   17 2     
   30   16   29 1     
@<TRIPOS>SUBSTRUCTURE
      1 RES1           1
@<TRIPOS>SET
DONOR_HYDROGENS      STATIC     ATOMS    <user>   **** ""
2 22 23
ATOM$RED        STATIC     ATOMS    COLORGROUP SYSTEM
2 22 23
@<TRIPOS>COMMENT
> <Gold.Version>
2022.3.0

> <Gold.Id.Protein>
unknown|3fmm_clean|pdb

> <Gold.Protein.RotatedTorsions>
[  523  520  519  517 ] final   63.76 input   59.99 | X-H torsion
[ 1700 1693 1691 1688 ] final   67.81 input   59.98 | X-H torsion
[  491  486  485  482 ] final  -55.01 input   59.97 | X-H torsion

> <Gold.Protein.ActiveResidues>
 TRP18   SER28   PRO29   VAL30   GLY31   SER32   GLY33   ALA34   TYR35   GLY36  
 SER37   VAL38   CYS39   ALA40   ARG49   VAL50   ALA51   VAL52   LYS53   LYS54  
 LEU55   GLU71   LEU72   LEU75   ILE84   GLY85   LEU86   LEU87   ASP88   VAL89  
 VAL102  TYR103  LEU104  VAL105  THR106  HIS107  LEU108  MET109  GLY110  ALA111 
 ASP112  LEU113  ASN115  PRO153  SER154  ASN155  LEU156  ALA157  VAL158  ASN159 
 LYS165  ILE166  LEU167  ASP168  PHE169 

> <Gold.Protein.RotatedAtoms>
   30.4265   12.9814   41.0093 H   0  0  0  0  0  0  0  0  0  0  0  0  # atno 491  bound_to 486 
   28.5110   11.0209   31.5039 H   0  0  0  0  0  0  0  0  0  0  0  0  # atno 523  bound_to 520 
   15.5106    7.1623   27.2957 H   0  0  0  0  0  0  0  0  0  0  0  0  # atno 1700 bound_to 1693
   29.3227   12.3070   32.0823 LP  0  0  0  0  0  0  0  0  0  0  0  0  # atno 5584 bound_to 520 
   28.7315   12.3279   30.5602 LP  0  0  0  0  0  0  0  0  0  0  0  0  # atno 5585 bound_to 520 
   16.9223    6.4898   27.7462 LP  0  0  0  0  0  0  0  0  0  0  0  0  # atno 5610 bound_to 1693
   16.8732    8.0517   27.2724 LP  0  0  0  0  0  0  0  0  0  0  0  0  # atno 5611 bound_to 1693

> <Gold.Score>
     Fitness  S(hb_ext) S(vdw_ext)  S(hb_int)    S(int)      intcor
     37.46       0.00      27.97       0.00      -0.99      -0.80

> <Gold.Goldscore.Fitness>
37.4636

> <Gold.Goldscore.Internal.Vdw>
-1.3756

> <Gold.Goldscore.Internal.Torsion>
-0.4208

> <Gold.Goldscore.External.Vdw>
27.9698

> <Gold.Goldscore.Internal.HBond>
0.0000

> <Gold.Goldscore.External.HBond>
0.0000

> <Gold.Goldscore.Internal.Correction>
-0.8016

> <Gold.Goldscore.Internal.Vdw.Weighted>
-1.3756

> <Gold.Goldscore.Internal.Torsion.Weighted>
-0.4208

> <Gold.Goldscore.External.Vdw.Weighted>
38.4585

> <Gold.Goldscore.Internal.HBond.Weighted>
0.0000

> <Gold.Goldscore.External.HBond.Weighted>
0.0000

> <Gold.Goldscore.Internal.Correction.Weighted>
-0.8016

> <Gold.Rescore>
     Score     S(PLP)   S(hbond)     S(cho)   S(metal)  DE(clash)   DE(tors)     intcor
     36.59     -38.77       0.00       0.00       0.00       2.02       0.08       ----

> <Gold.PLP.Fitness>
36.5902

> <Gold.PLP.PLP>
-38.7732

> <Gold.PLP.part.hbond>
0.0000

> <Gold.PLP.part.metal>
0.0000

> <Gold.PLP.part.buried>
2.6650

> <Gold.PLP.part.nonpolar>
-42.3468

> <Gold.PLP.part.repulsive>
0.1025

> <Gold.PLP.ligand.clash>
2.0247

> <Gold.PLP.ligand.torsion>
0.0792

> <Gold.PLP.Chemscore.Hbond>
0.0000

> <Gold.PLP.Chemscore.CHOScore>
0.0000

> <Gold.PLP.Chemscore.Metal>
0.0000

> <Gold.PLP.Chemscore.Internal.Correction>
   9.000000E+99

