#       Name:                CT1002167954
#       Creating user name   hitesit
#       Creation time:       Sun Apr 16 02:23:15 2023


#       File generated by GOLD software.
#

@<TRIPOS>MOLECULE
CT1002167954|ligand_prepared|mol2|1|dock2
    29    30     1
SMALL
NO_CHARGES


@<TRIPOS>ATOM
      1 C1          98.9742 261.7704 359.3857 C.3            1 RES1               0.0000
      2 C2          99.9594 262.9435 359.2071 C.ar           1 RES1               0.0000
      3 C3          99.6305 260.8056 360.3689 C.2            1 RES1               0.0000
      4 C4          97.6709 262.3808 359.8892 C.2            1 RES1               0.0000
      5 C5          98.6692 261.0057 358.0766 C.3            1 RES1               0.0000
      6 C6         101.1575 262.7646 358.5221 C.ar           1 RES1               0.0000
      7 C7          99.6833 264.2088 359.7184 C.ar           1 RES1               0.0000
      8 N8          99.1309 260.7588 361.6370 N.am           1 RES1               0.0000
      9 O9         100.5970 260.1252 360.0477 O.2            1 RES1               0.0000
     10 N10         97.2566 262.0563 361.1545 N.am           1 RES1               0.0000
     11 O11         97.0075 263.1528 359.2079 O.2            1 RES1               0.0000
     12 C12         97.7716 259.7935 358.2695 C.3            1 RES1               0.0000
     13 C13        102.0462 263.8132 358.3518 C.ar           1 RES1               0.0000
     14 C14        100.5735 265.2561 359.5471 C.ar           1 RES1               0.0000
     15 C15         97.9432 261.2973 362.0625 C.2            1 RES1               0.0000
     16 C16        101.7546 265.0596 358.8637 C.ar           1 RES1               0.0000
     17 O17         97.5309 261.0948 363.2010 O.2            1 RES1               0.0000
     18 H18         98.1875 261.6930 357.3702 H              1 RES1               0.0000
     19 H19         99.6162 260.6764 357.6312 H              1 RES1               0.0000
     20 H20        101.4052 261.7902 358.1143 H              1 RES1               0.0000
     21 H21         98.7607 264.3862 360.2604 H              1 RES1               0.0000
     22 H22         99.6924 260.2790 362.3334 H              1 RES1               0.0000
     23 H23         96.3525 262.4137 361.4464 H              1 RES1               0.0000
     24 H24         97.5893 259.2937 357.3205 H              1 RES1               0.0000
     25 H25         98.2313 259.0771 358.9471 H              1 RES1               0.0000
     26 H26         96.8111 260.0876 358.6877 H              1 RES1               0.0000
     27 H27        102.9750 263.6531 357.8143 H              1 RES1               0.0000
     28 H28        100.3402 266.2352 359.9523 H              1 RES1               0.0000
     29 H29        102.4507 265.8810 358.7298 H              1 RES1               0.0000
@<TRIPOS>BOND
    1    1    2 1     
    2    1    3 1     
    3    1    4 1     
    4    1    5 1     
    5    2    6 ar    
    6    2    7 ar    
    7    3    8 1     
    8    3    9 2     
    9    4   10 1     
   10    4   11 2     
   11    5   12 1     
   12    5   18 1     
   13    5   19 1     
   14    6   13 ar    
   15    6   20 1     
   16    7   14 ar    
   17    7   21 1     
   18    8   15 1     
   19    8   22 1     
   20   10   15 1     
   21   10   23 1     
   22   12   24 1     
   23   12   25 1     
   24   12   26 1     
   25   13   16 ar    
   26   13   27 1     
   27   14   16 ar    
   28   14   28 1     
   29   15   17 2     
   30   16   29 1     
@<TRIPOS>SUBSTRUCTURE
      1 RES1           1
@<TRIPOS>SET
DONOR_HYDROGENS      STATIC     ATOMS    <user>   **** ""
2 22 23
ATOM$RED        STATIC     ATOMS    COLORGROUP SYSTEM
2 22 23
@<TRIPOS>COMMENT
> <Gold.Version>
2022.3.0

> <Gold.Id.Protein>
unknown|5uo4_clean|pdb

> <Gold.Protein.RotatedTorsions>
[  757  738  737  736 ] final   12.46 input   60.01 | X-H torsion
[ 3212 3191 3190 3188 ] final  137.15 input   60.02 | X-H torsion
[ 2025 2009 2008 2005 ] final  -40.02 input   60.00 | X-H torsion
[ 2041 2031 2030 2027 ] final -114.24 input   59.98 | X-H torsion

> <Gold.Protein.ActiveResidues>
 LEU321  LEU323  LYS324  SER325  THR326  GLU365  PHE366  GLN369  TYR370  SER372 
 SER373  TYR408  HIS412  ARG415  ASN416  TRP426  GLU670  CYS673  ARG674  GLY675 
 PRO678  TYR703  ARG704  LEU705  THR706  PRO707 

> <Gold.Protein.RotatedAtoms>
   98.3724  264.8299  357.2955 H   0  0  0  0  0  0  0  0  0  0  0  0  # atno 757  bound_to 738 
   97.1910  265.9228  357.6900 H   0  0  0  0  0  0  0  0  0  0  0  0  # atno 758  bound_to 738 
   97.1371  265.1350  356.2336 H   0  0  0  0  0  0  0  0  0  0  0  0  # atno 759  bound_to 738 
   93.2949  262.9771  362.8151 H   0  0  0  0  0  0  0  0  0  0  0  0  # atno 2025 bound_to 2009
   97.8910  260.1815  367.1220 H   0  0  0  0  0  0  0  0  0  0  0  0  # atno 2041 bound_to 2031
  100.4040  261.3536  364.3971 H   0  0  0  0  0  0  0  0  0  0  0  0  # atno 3212 bound_to 3191
   99.5996  259.9678  364.1134 LP  0  0  0  0  0  0  0  0  0  0  0  0  # atno 13532 bound_to 3191
  101.1493  260.1304  363.6249 LP  0  0  0  0  0  0  0  0  0  0  0  0  # atno 13533 bound_to 3191
   94.2040  263.8758  361.8080 LP  0  0  0  0  0  0  0  0  0  0  0  0  # atno 13548 bound_to 2009
   93.1055  264.5930  362.7805 LP  0  0  0  0  0  0  0  0  0  0  0  0  # atno 13549 bound_to 2009
   97.5483  258.6008  367.2996 LP  0  0  0  0  0  0  0  0  0  0  0  0  # atno 13551 bound_to 2031
   96.3837  259.7225  367.5282 LP  0  0  0  0  0  0  0  0  0  0  0  0  # atno 13552 bound_to 2031

> <Gold.Score>
     Fitness  S(hb_ext) S(vdw_ext)  S(hb_int)    S(int)      intcor
     38.35       6.44      24.90       0.00      -2.33      -0.78

> <Gold.Goldscore.Fitness>
38.3539

> <Gold.Goldscore.Internal.Vdw>
-2.7150

> <Gold.Goldscore.Internal.Torsion>
-0.3922

> <Gold.Goldscore.External.Vdw>
24.9041

> <Gold.Goldscore.Internal.HBond>
0.0000

> <Gold.Goldscore.External.HBond>
6.4360

> <Gold.Goldscore.Internal.Correction>
-0.7819

> <Gold.Goldscore.Hbonds>
donor molecule, donor type, donor heavy atom, donor atom, acceptor molecule, acceptor atom, score
      P1  H 11757 11794       L1     9  1.00
      L1  H     8    22       P1  3191  0.05
      L1  H    10    23       P1  2009  0.17

> <Gold.Goldscore.Internal.Vdw.Weighted>
-2.7150

> <Gold.Goldscore.Internal.Torsion.Weighted>
-0.3922

> <Gold.Goldscore.External.Vdw.Weighted>
34.2432

> <Gold.Goldscore.Internal.HBond.Weighted>
0.0000

> <Gold.Goldscore.External.HBond.Weighted>
6.4360

> <Gold.Goldscore.Internal.Correction.Weighted>
-0.7819

> <Gold.Rescore>
     Score     S(PLP)   S(hbond)     S(cho)   S(metal)  DE(clash)   DE(tors)     intcor
     41.63     -36.65       2.19       0.00       0.00       1.04       0.28       ----

> <Gold.PLP.Fitness>
41.6251

> <Gold.PLP.PLP>
-36.6536

> <Gold.PLP.part.hbond>
-3.0000

> <Gold.PLP.part.metal>
0.0000

> <Gold.PLP.part.buried>
-6.4292

> <Gold.PLP.part.nonpolar>
-28.3699

> <Gold.PLP.part.repulsive>
1.0346

> <Gold.PLP.ligand.clash>
1.0411

> <Gold.PLP.ligand.torsion>
0.2817

> <Gold.PLP.Chemscore.Hbond>
2.1920

> <Gold.PLP.Chemscore.CHOScore>
0.0000

> <Gold.PLP.Chemscore.Metal>
0.0000

> <Gold.Chemscore.Hbonds>
donor molecule, donor type, donor heavy atom, donor atom, acceptor molecule, acceptor atom, score
      L1  H     8    22       P1  3191  0.54
      P1  H 11757 11794       L1     9  1.00

> <Gold.PLP.Chemscore.Internal.Correction>
   9.000000E+99

