#       Name:                CT1002167954
#       Creating user name   hitesit
#       Creation time:       Sun Apr 16 02:23:15 2023


#       File generated by GOLD software.
#

@<TRIPOS>MOLECULE
CT1002167954|ligand_prepared|mol2|1|dock3
    29    30     1
SMALL
NO_CHARGES


@<TRIPOS>ATOM
      1 C1          99.0593 261.0271 359.8895 C.3            1 RES1               0.0000
      2 C2         100.5023 261.5030 359.6248 C.ar           1 RES1               0.0000
      3 C3          98.1770 262.2694 359.8098 C.2            1 RES1               0.0000
      4 C4          98.7542 259.9780 358.8260 C.2            1 RES1               0.0000
      5 C5          98.8618 260.3726 361.2766 C.3            1 RES1               0.0000
      6 C6         101.5775 260.8970 360.2677 C.ar           1 RES1               0.0000
      7 C7         100.7737 262.5431 358.7399 C.ar           1 RES1               0.0000
      8 N8          97.3900 262.4157 358.7056 N.am           1 RES1               0.0000
      9 O9          98.2009 263.1273 360.6837 O.2            1 RES1               0.0000
     10 N10         97.7862 260.2655 357.8997 N.am           1 RES1               0.0000
     11 O11         99.3549 258.9120 358.7717 O.2            1 RES1               0.0000
     12 C12         97.4036 260.1730 361.6584 C.3            1 RES1               0.0000
     13 C13        102.8773 261.3136 360.0324 C.ar           1 RES1               0.0000
     14 C14        102.0743 262.9584 358.5062 C.ar           1 RES1               0.0000
     15 C15         97.1118 261.4493 357.7727 C.2            1 RES1               0.0000
     16 C16        103.1266 262.3442 359.1513 C.ar           1 RES1               0.0000
     17 O17         96.2940 261.6517 356.8797 O.2            1 RES1               0.0000
     18 H18         99.3648 259.3977 361.2819 H              1 RES1               0.0000
     19 H19         99.3425 261.0020 362.0357 H              1 RES1               0.0000
     20 H20        101.4006 260.0860 360.9664 H              1 RES1               0.0000
     21 H21         99.9615 263.0417 358.2219 H              1 RES1               0.0000
     22 H22         96.9695 263.3280 358.5601 H              1 RES1               0.0000
     23 H23         97.5460 259.5287 357.2441 H              1 RES1               0.0000
     24 H24         97.3216 259.7107 362.6399 H              1 RES1               0.0000
     25 H25         96.8786 261.1256 361.6876 H              1 RES1               0.0000
     26 H26         96.9007 259.5308 360.9383 H              1 RES1               0.0000
     27 H27        103.7018 260.8279 360.5437 H              1 RES1               0.0000
     28 H28        102.2658 263.7703 357.8124 H              1 RES1               0.0000
     29 H29        104.1449 262.6702 358.9669 H              1 RES1               0.0000
@<TRIPOS>BOND
    1    1    2 1     
    2    1    3 1     
    3    1    4 1     
    4    1    5 1     
    5    2    6 ar    
    6    2    7 ar    
    7    3    8 1     
    8    3    9 2     
    9    4   10 1     
   10    4   11 2     
   11    5   12 1     
   12    5   18 1     
   13    5   19 1     
   14    6   13 ar    
   15    6   20 1     
   16    7   14 ar    
   17    7   21 1     
   18    8   15 1     
   19    8   22 1     
   20   10   15 1     
   21   10   23 1     
   22   12   24 1     
   23   12   25 1     
   24   12   26 1     
   25   13   16 ar    
   26   13   27 1     
   27   14   16 ar    
   28   14   28 1     
   29   15   17 2     
   30   16   29 1     
@<TRIPOS>SUBSTRUCTURE
      1 RES1           1
@<TRIPOS>SET
DONOR_HYDROGENS      STATIC     ATOMS    <user>   **** ""
2 22 23
ATOM$RED        STATIC     ATOMS    COLORGROUP SYSTEM
2 22 23
@<TRIPOS>COMMENT
> <Gold.Version>
2022.3.0

> <Gold.Id.Protein>
unknown|5uo4_clean|pdb

> <Gold.Protein.RotatedTorsions>
[  757  738  737  736 ] final   15.26 input   60.01 | X-H torsion
[ 3212 3191 3190 3188 ] final   59.82 input   60.02 | X-H torsion
[ 2025 2009 2008 2005 ] final -112.88 input   60.00 | X-H torsion
[ 2041 2031 2030 2027 ] final  -21.64 input   59.98 | X-H torsion

> <Gold.Protein.ActiveResidues>
 LEU321  LEU323  LYS324  SER325  THR326  GLU365  PHE366  GLN369  TYR370  SER372 
 SER373  TYR408  HIS412  ARG415  ASN416  TRP426  GLU670  CYS673  ARG674  GLY675 
 PRO678  TYR703  ARG704  LEU705  THR706  PRO707 

> <Gold.Protein.RotatedAtoms>
   98.3729  264.8526  357.3363 H   0  0  0  0  0  0  0  0  0  0  0  0  # atno 757  bound_to 738 
   97.1566  265.9307  357.6593 H   0  0  0  0  0  0  0  0  0  0  0  0  # atno 758  bound_to 738 
   97.1709  265.1044  356.2234 H   0  0  0  0  0  0  0  0  0  0  0  0  # atno 759  bound_to 738 
   94.0665  263.1741  362.0387 H   0  0  0  0  0  0  0  0  0  0  0  0  # atno 2025 bound_to 2009
   96.5807  260.1146  367.4545 H   0  0  0  0  0  0  0  0  0  0  0  0  # atno 2041 bound_to 2031
   99.5223  260.5850  364.3970 H   0  0  0  0  0  0  0  0  0  0  0  0  # atno 3212 bound_to 3191
  100.6323  259.6798  363.6249 LP  0  0  0  0  0  0  0  0  0  0  0  0  # atno 13532 bound_to 3191
  101.0049  261.1927  364.1135 LP  0  0  0  0  0  0  0  0  0  0  0  0  # atno 13533 bound_to 3191
   93.6286  264.7266  362.2542 LP  0  0  0  0  0  0  0  0  0  0  0  0  # atno 13548 bound_to 2009
   92.9040  263.5439  363.1160 LP  0  0  0  0  0  0  0  0  0  0  0  0  # atno 13549 bound_to 2009
   98.1358  259.8119  367.0835 LP  0  0  0  0  0  0  0  0  0  0  0  0  # atno 13551 bound_to 2031
   97.1161  258.5787  367.4093 LP  0  0  0  0  0  0  0  0  0  0  0  0  # atno 13552 bound_to 2031

> <Gold.Score>
     Fitness  S(hb_ext) S(vdw_ext)  S(hb_int)    S(int)      intcor
     36.96       6.04      22.96       0.00      -0.65      -0.78

> <Gold.Goldscore.Fitness>
36.9646

> <Gold.Goldscore.Internal.Vdw>
-0.8241

> <Gold.Goldscore.Internal.Torsion>
-0.6087

> <Gold.Goldscore.External.Vdw>
22.9604

> <Gold.Goldscore.Internal.HBond>
0.0000

> <Gold.Goldscore.External.HBond>
6.0450

> <Gold.Goldscore.Internal.Correction>
-0.7819

> <Gold.Goldscore.Hbonds>
donor molecule, donor type, donor heavy atom, donor atom, acceptor molecule, acceptor atom, score
      P1  H 11754 11790       L1    11  1.00
      L1  H    10    23       P1 11750  0.02

> <Gold.Goldscore.Internal.Vdw.Weighted>
-0.8241

> <Gold.Goldscore.Internal.Torsion.Weighted>
-0.6087

> <Gold.Goldscore.External.Vdw.Weighted>
31.5705

> <Gold.Goldscore.Internal.HBond.Weighted>
0.0000

> <Gold.Goldscore.External.HBond.Weighted>
6.0450

> <Gold.Goldscore.Internal.Correction.Weighted>
-0.7819

> <Gold.Rescore>
     Score     S(PLP)   S(hbond)     S(cho)   S(metal)  DE(clash)   DE(tors)     intcor
     23.85     -23.31       0.93       0.00       0.00       0.00       1.12       ----

> <Gold.PLP.Fitness>
23.8505

> <Gold.PLP.PLP>
-23.3106

> <Gold.PLP.part.hbond>
-1.0000

> <Gold.PLP.part.metal>
0.0000

> <Gold.PLP.part.buried>
-0.1995

> <Gold.PLP.part.nonpolar>
-22.5875

> <Gold.PLP.part.repulsive>
0.1940

> <Gold.PLP.ligand.clash>
0.0000

> <Gold.PLP.ligand.torsion>
1.1221

> <Gold.PLP.Chemscore.Hbond>
0.9280

> <Gold.PLP.Chemscore.CHOScore>
0.0000

> <Gold.PLP.Chemscore.Metal>
0.0000

> <Gold.Chemscore.Hbonds>
donor molecule, donor type, donor heavy atom, donor atom, acceptor molecule, acceptor atom, score
      P1  H 11754 11790       L1    11  0.52

> <Gold.PLP.Chemscore.Internal.Correction>
   9.000000E+99

