#       Name:                CT1002167954
#       Creating user name   hitesit
#       Creation time:       Sun Apr 16 02:23:19 2023


#       File generated by GOLD software.
#

@<TRIPOS>MOLECULE
CT1002167954|ligand_prepared|mol2|1|dock9
    29    30     1
SMALL
NO_CHARGES


@<TRIPOS>ATOM
      1 C1          98.8634 261.1159 358.9264 C.3            1 RES1               0.0000
      2 C2          97.7382 260.5291 358.0499 C.ar           1 RES1               0.0000
      3 C3          98.1835 262.0313 359.9403 C.2            1 RES1               0.0000
      4 C4          99.5845 259.9253 359.5486 C.2            1 RES1               0.0000
      5 C5          99.9031 261.9445 358.1364 C.3            1 RES1               0.0000
      6 C6          97.0982 259.3485 358.4151 C.ar           1 RES1               0.0000
      7 C7          97.3281 261.1572 356.8769 C.ar           1 RES1               0.0000
      8 N8          98.0964 261.5927 361.2287 N.am           1 RES1               0.0000
      9 O9          97.6961 263.1043 359.6064 O.2            1 RES1               0.0000
     10 N10         99.5097 259.7680 360.9078 N.am           1 RES1               0.0000
     11 O11        100.2029 259.1126 358.8723 O.2            1 RES1               0.0000
     12 C12        101.1297 262.3257 358.9502 C.3            1 RES1               0.0000
     13 C13         96.0830 258.8166 357.6375 C.ar           1 RES1               0.0000
     14 C14         96.3128 260.6234 356.1006 C.ar           1 RES1               0.0000
     15 C15         98.7727 260.5305 361.7726 C.2            1 RES1               0.0000
     16 C16         95.6893 259.4538 356.4801 C.ar           1 RES1               0.0000
     17 O17         98.7122 260.2935 362.9757 O.2            1 RES1               0.0000
     18 H18        100.2254 261.3655 357.2621 H              1 RES1               0.0000
     19 H19         99.4218 262.8608 357.7728 H              1 RES1               0.0000
     20 H20         97.3961 258.8317 359.3213 H              1 RES1               0.0000
     21 H21         97.8051 262.0778 356.5582 H              1 RES1               0.0000
     22 H22         97.4703 262.1015 361.8447 H              1 RES1               0.0000
     23 H23        100.0538 259.0127 361.3124 H              1 RES1               0.0000
     24 H24        101.8266 262.9057 358.3488 H              1 RES1               0.0000
     25 H25        100.8486 262.9240 359.8144 H              1 RES1               0.0000
     26 H26        101.6473 261.4376 359.3067 H              1 RES1               0.0000
     27 H27         95.5964 257.8952 357.9398 H              1 RES1               0.0000
     28 H28         96.0066 261.1280 355.1901 H              1 RES1               0.0000
     29 H29         94.8937 259.0372 355.8713 H              1 RES1               0.0000
@<TRIPOS>BOND
    1    1    2 1     
    2    1    3 1     
    3    1    4 1     
    4    1    5 1     
    5    2    6 ar    
    6    2    7 ar    
    7    3    8 1     
    8    3    9 2     
    9    4   10 1     
   10    4   11 2     
   11    5   12 1     
   12    5   18 1     
   13    5   19 1     
   14    6   13 ar    
   15    6   20 1     
   16    7   14 ar    
   17    7   21 1     
   18    8   15 1     
   19    8   22 1     
   20   10   15 1     
   21   10   23 1     
   22   12   24 1     
   23   12   25 1     
   24   12   26 1     
   25   13   16 ar    
   26   13   27 1     
   27   14   16 ar    
   28   14   28 1     
   29   15   17 2     
   30   16   29 1     
@<TRIPOS>SUBSTRUCTURE
      1 RES1           1
@<TRIPOS>SET
DONOR_HYDROGENS      STATIC     ATOMS    <user>   **** ""
2 22 23
ATOM$RED        STATIC     ATOMS    COLORGROUP SYSTEM
2 22 23
@<TRIPOS>COMMENT
> <Gold.Version>
2022.3.0

> <Gold.Id.Protein>
unknown|5uo4_clean|pdb

> <Gold.Protein.RotatedTorsions>
[  757  738  737  736 ] final -153.07 input   60.01 | X-H torsion
[ 3212 3191 3190 3188 ] final -107.90 input   60.02 | X-H torsion
[ 2025 2009 2008 2005 ] final -112.45 input   60.00 | X-H torsion
[ 2041 2031 2030 2027 ] final  132.44 input   59.98 | X-H torsion

> <Gold.Protein.ActiveResidues>
 LEU321  LEU323  LYS324  SER325  THR326  GLU365  PHE366  GLN369  TYR370  SER372 
 SER373  TYR408  HIS412  ARG415  ASN416  TRP426  GLU670  CYS673  ARG674  GLY675 
 PRO678  TYR703  ARG704  LEU705  THR706  PRO707 

> <Gold.Protein.RotatedAtoms>
   96.7786  265.6328  356.6472 H   0  0  0  0  0  0  0  0  0  0  0  0  # atno 757  bound_to 738 
   98.1093  264.6455  356.6280 H   0  0  0  0  0  0  0  0  0  0  0  0  # atno 758  bound_to 738 
   97.8121  265.6090  357.9426 H   0  0  0  0  0  0  0  0  0  0  0  0  # atno 759  bound_to 738 
   94.0633  263.1690  362.0425 H   0  0  0  0  0  0  0  0  0  0  0  0  # atno 2025 bound_to 2009
   97.6450  258.6443  367.2709 H   0  0  0  0  0  0  0  0  0  0  0  0  # atno 2041 bound_to 2031
  101.1820  260.2041  363.6455 H   0  0  0  0  0  0  0  0  0  0  0  0  # atno 3212 bound_to 3191
  100.3246  261.3489  364.4215 LP  0  0  0  0  0  0  0  0  0  0  0  0  # atno 13532 bound_to 3191
   99.6405  259.9074  364.0739 LP  0  0  0  0  0  0  0  0  0  0  0  0  # atno 13533 bound_to 3191
   93.6337  264.7250  362.2495 LP  0  0  0  0  0  0  0  0  0  0  0  0  # atno 13548 bound_to 2009
   92.9022  263.5507  363.1169 LP  0  0  0  0  0  0  0  0  0  0  0  0  # atno 13549 bound_to 2009
   96.3664  259.6145  367.5387 LP  0  0  0  0  0  0  0  0  0  0  0  0  # atno 13551 bound_to 2031
   97.8133  260.2574  367.1391 LP  0  0  0  0  0  0  0  0  0  0  0  0  # atno 13552 bound_to 2031

> <Gold.Score>
     Fitness  S(hb_ext) S(vdw_ext)  S(hb_int)    S(int)      intcor
     33.41       3.73      21.91       0.00      -0.43      -0.76

> <Gold.Goldscore.Fitness>
33.4102

> <Gold.Goldscore.Internal.Vdw>
-0.6807

> <Gold.Goldscore.Internal.Torsion>
-0.5128

> <Gold.Goldscore.External.Vdw>
21.9055

> <Gold.Goldscore.Internal.HBond>
0.0000

> <Gold.Goldscore.External.HBond>
3.7252

> <Gold.Goldscore.Internal.Correction>
-0.7585

> <Gold.Goldscore.Hbonds>
donor molecule, donor type, donor heavy atom, donor atom, acceptor molecule, acceptor atom, score
      P1  H 11754 11790       L1    11  0.49
      P1  H 11757 11794       L1    11  0.13

> <Gold.Goldscore.Internal.Vdw.Weighted>
-0.6807

> <Gold.Goldscore.Internal.Torsion.Weighted>
-0.5128

> <Gold.Goldscore.External.Vdw.Weighted>
30.1200

> <Gold.Goldscore.Internal.HBond.Weighted>
0.0000

> <Gold.Goldscore.External.HBond.Weighted>
3.7252

> <Gold.Goldscore.Internal.Correction.Weighted>
-0.7585

> <Gold.Rescore>
     Score     S(PLP)   S(hbond)     S(cho)   S(metal)  DE(clash)   DE(tors)     intcor
     24.09     -22.72       1.19       0.00       0.00       0.43       0.89       ----

> <Gold.PLP.Fitness>
24.0887

> <Gold.PLP.PLP>
-22.7226

> <Gold.PLP.part.hbond>
-2.5920

> <Gold.PLP.part.metal>
0.0000

> <Gold.PLP.part.buried>
-4.7420

> <Gold.PLP.part.nonpolar>
-18.2150

> <Gold.PLP.part.repulsive>
2.4726

> <Gold.PLP.ligand.clash>
0.4331

> <Gold.PLP.ligand.torsion>
0.8921

> <Gold.PLP.Chemscore.Hbond>
1.1945

> <Gold.PLP.Chemscore.CHOScore>
0.0000

> <Gold.PLP.Chemscore.Metal>
0.0000

> <Gold.Chemscore.Hbonds>
donor molecule, donor type, donor heavy atom, donor atom, acceptor molecule, acceptor atom, score
      P1  H 11754 11790       L1    11  0.33
      P1  H 11757 11794       L1    11  0.54

> <Gold.PLP.Chemscore.Internal.Correction>
   9.000000E+99

