#       Name:                CT1002167954
#       Creating user name   hitesit
#       Creation time:       Sun Apr 16 02:23:14 2023


#       File generated by GOLD software.
#

@<TRIPOS>MOLECULE
CT1002167954|ligand_prepared|mol2|1|dock1
    29    30     1
SMALL
NO_CHARGES


@<TRIPOS>ATOM
      1 C1          98.9116 261.2019 359.5614 C.3            1 RES1               0.0000
      2 C2         100.3121 261.8303 359.4113 C.ar           1 RES1               0.0000
      3 C3          99.1270 259.6948 359.6644 C.2            1 RES1               0.0000
      4 C4          98.2939 261.8286 360.8065 C.2            1 RES1               0.0000
      5 C5          97.9695 261.4829 358.3676 C.3            1 RES1               0.0000
      6 C6         101.4239 261.2309 359.9955 C.ar           1 RES1               0.0000
      7 C7         100.5079 263.0055 358.6908 C.ar           1 RES1               0.0000
      8 N8          98.9655 259.1157 360.8886 N.am           1 RES1               0.0000
      9 O9          99.4719 259.0309 358.6947 O.2            1 RES1               0.0000
     10 N10         98.0497 261.0146 361.8814 N.am           1 RES1               0.0000
     11 O11         98.0319 263.0233 360.8724 O.2            1 RES1               0.0000
     12 C12         96.7168 260.6211 358.3590 C.3            1 RES1               0.0000
     13 C13        102.6864 261.7847 359.8618 C.ar           1 RES1               0.0000
     14 C14        101.7713 263.5577 358.5585 C.ar           1 RES1               0.0000
     15 C15         98.3859 259.6926 361.9899 C.2            1 RES1               0.0000
     16 C16        102.8610 262.9480 359.1429 C.ar           1 RES1               0.0000
     17 O17         98.1828 259.0406 363.0100 O.2            1 RES1               0.0000
     18 H18         97.6718 262.5384 358.3936 H              1 RES1               0.0000
     19 H19         98.5212 261.3130 357.4348 H              1 RES1               0.0000
     20 H20        101.3056 260.3164 360.5669 H              1 RES1               0.0000
     21 H21         99.6650 263.5031 358.2234 H              1 RES1               0.0000
     22 H22         99.3073 258.1659 360.9950 H              1 RES1               0.0000
     23 H23         97.5731 261.4327 362.6741 H              1 RES1               0.0000
     24 H24         96.0911 260.8585 357.5012 H              1 RES1               0.0000
     25 H25         96.9751 259.5654 358.3082 H              1 RES1               0.0000
     26 H26         96.1307 260.7835 359.2613 H              1 RES1               0.0000
     27 H27        103.5406 261.3017 360.3248 H              1 RES1               0.0000
     28 H28        101.9040 264.4738 357.9924 H              1 RES1               0.0000
     29 H29        103.8501 263.3814 359.0380 H              1 RES1               0.0000
@<TRIPOS>BOND
    1    1    2 1     
    2    1    3 1     
    3    1    4 1     
    4    1    5 1     
    5    2    6 ar    
    6    2    7 ar    
    7    3    8 1     
    8    3    9 2     
    9    4   10 1     
   10    4   11 2     
   11    5   12 1     
   12    5   18 1     
   13    5   19 1     
   14    6   13 ar    
   15    6   20 1     
   16    7   14 ar    
   17    7   21 1     
   18    8   15 1     
   19    8   22 1     
   20   10   15 1     
   21   10   23 1     
   22   12   24 1     
   23   12   25 1     
   24   12   26 1     
   25   13   16 ar    
   26   13   27 1     
   27   14   16 ar    
   28   14   28 1     
   29   15   17 2     
   30   16   29 1     
@<TRIPOS>SUBSTRUCTURE
      1 RES1           1
@<TRIPOS>SET
DONOR_HYDROGENS      STATIC     ATOMS    <user>   **** ""
2 22 23
ATOM$RED        STATIC     ATOMS    COLORGROUP SYSTEM
2 22 23
@<TRIPOS>COMMENT
> <Gold.Version>
2022.3.0

> <Gold.Id.Protein>
unknown|5uo4_clean|pdb

> <Gold.Protein.RotatedTorsions>
[  757  738  737  736 ] final  -44.23 input   60.01 | X-H torsion
[ 3212 3191 3190 3188 ] final -149.56 input   60.02 | X-H torsion
[ 2025 2009 2008 2005 ] final -138.11 input   60.00 | X-H torsion
[ 2041 2031 2030 2027 ] final   21.38 input   59.98 | X-H torsion

> <Gold.Protein.ActiveResidues>
 LEU321  LEU323  LYS324  SER325  THR326  GLU365  PHE366  GLN369  TYR370  SER372 
 SER373  TYR408  HIS412  ARG415  ASN416  TRP426  GLU670  CYS673  ARG674  GLY675 
 PRO678  TYR703  ARG704  LEU705  THR706  PRO707 

> <Gold.Protein.RotatedAtoms>
   97.9835  264.6596  356.4921 H   0  0  0  0  0  0  0  0  0  0  0  0  # atno 757  bound_to 738 
   97.9564  265.4933  357.9239 H   0  0  0  0  0  0  0  0  0  0  0  0  # atno 758  bound_to 738 
   96.7608  265.7344  356.8026 H   0  0  0  0  0  0  0  0  0  0  0  0  # atno 759  bound_to 738 
   94.1929  263.5242  361.8692 H   0  0  0  0  0  0  0  0  0  0  0  0  # atno 2025 bound_to 2009
   96.3687  259.4681  367.5444 H   0  0  0  0  0  0  0  0  0  0  0  0  # atno 2041 bound_to 2031
  101.2411  260.8245  363.8795 H   0  0  0  0  0  0  0  0  0  0  0  0  # atno 3212 bound_to 3191
   99.7461  261.0173  364.4925 LP  0  0  0  0  0  0  0  0  0  0  0  0  # atno 13532 bound_to 3191
  100.1596  259.6139  363.7672 LP  0  0  0  0  0  0  0  0  0  0  0  0  # atno 13533 bound_to 3191
   93.3330  264.7316  362.5409 LP  0  0  0  0  0  0  0  0  0  0  0  0  # atno 13548 bound_to 2009
   93.0723  263.1863  362.9999 LP  0  0  0  0  0  0  0  0  0  0  0  0  # atno 13549 bound_to 2009
   97.6920  260.3357  367.1651 LP  0  0  0  0  0  0  0  0  0  0  0  0  # atno 13551 bound_to 2031
   97.7734  258.7063  367.2371 LP  0  0  0  0  0  0  0  0  0  0  0  0  # atno 13552 bound_to 2031

> <Gold.Score>
     Fitness  S(hb_ext) S(vdw_ext)  S(hb_int)    S(int)      intcor
     38.93       6.03      24.32       0.00      -0.54      -0.82

> <Gold.Goldscore.Fitness>
38.9336

> <Gold.Goldscore.Internal.Vdw>
-0.7210

> <Gold.Goldscore.Internal.Torsion>
-0.6348

> <Gold.Goldscore.External.Vdw>
24.3232

> <Gold.Goldscore.Internal.HBond>
0.0000

> <Gold.Goldscore.External.HBond>
6.0251

> <Gold.Goldscore.Internal.Correction>
-0.8199

> <Gold.Goldscore.Hbonds>
donor molecule, donor type, donor heavy atom, donor atom, acceptor molecule, acceptor atom, score
      P1  H 11754 11790       L1     9  1.00
      L1  H    10    23       P1  1889  0.01

> <Gold.Goldscore.Internal.Vdw.Weighted>
-0.7210

> <Gold.Goldscore.Internal.Torsion.Weighted>
-0.6348

> <Gold.Goldscore.External.Vdw.Weighted>
33.4444

> <Gold.Goldscore.Internal.HBond.Weighted>
0.0000

> <Gold.Goldscore.External.HBond.Weighted>
6.0251

> <Gold.Goldscore.Internal.Correction.Weighted>
-0.8199

> <Gold.Rescore>
     Score     S(PLP)   S(hbond)     S(cho)   S(metal)  DE(clash)   DE(tors)     intcor
     39.83     -37.14       1.79       0.00       0.00       2.02       0.33       ----

> <Gold.PLP.Fitness>
39.8333

> <Gold.PLP.PLP>
-37.1393

> <Gold.PLP.part.hbond>
-2.1282

> <Gold.PLP.part.metal>
0.0000

> <Gold.PLP.part.buried>
-5.8558

> <Gold.PLP.part.nonpolar>
-29.1270

> <Gold.PLP.part.repulsive>
0.1660

> <Gold.PLP.ligand.clash>
2.0214

> <Gold.PLP.ligand.torsion>
0.3303

> <Gold.PLP.Chemscore.Hbond>
1.7920

> <Gold.PLP.Chemscore.CHOScore>
0.0000

> <Gold.PLP.Chemscore.Metal>
0.0000

> <Gold.Chemscore.Hbonds>
donor molecule, donor type, donor heavy atom, donor atom, acceptor molecule, acceptor atom, score
      P1  H 11754 11790       L1     9  0.47

> <Gold.PLP.Chemscore.Internal.Correction>
   9.000000E+99

