#       Name:                CT1002167954
#       Creating user name   hitesit
#       Creation time:       Sun Apr 16 20:33:12 2023


#       File generated by GOLD software.
#

@<TRIPOS>MOLECULE
CT1002167954|ligand_prepared|mol2|1|dock9
    29    30     1
SMALL
NO_CHARGES


@<TRIPOS>ATOM
      1 C1         248.4515 -13.2004  48.7071 C.3            1 RES1               0.0000
      2 C2         247.3937 -13.7563  49.6822 C.ar           1 RES1               0.0000
      3 C3         248.0524 -13.6893  47.3178 C.2            1 RES1               0.0000
      4 C4         248.4224 -11.6843  48.8651 C.2            1 RES1               0.0000
      5 C5         249.8901 -13.6843  49.0036 C.3            1 RES1               0.0000
      6 C6         247.6065 -13.7157  51.0569 C.ar           1 RES1               0.0000
      7 C7         246.2012 -14.3092  49.2230 C.ar           1 RES1               0.0000
      8 N8         247.5127 -12.7784  46.4583 N.am           1 RES1               0.0000
      9 O9         248.1727 -14.8648  46.9951 O.2            1 RES1               0.0000
     10 N10        248.0034 -10.9352  47.7969 N.am           1 RES1               0.0000
     11 O11        248.7428 -11.1324  49.9106 O.2            1 RES1               0.0000
     12 C12        250.9357 -13.1143  48.0581 C.3            1 RES1               0.0000
     13 C13        246.6602 -14.2074  51.9407 C.ar           1 RES1               0.0000
     14 C14        245.2563 -14.8006  50.1086 C.ar           1 RES1               0.0000
     15 C15        247.5180 -11.4152  46.6110 C.2            1 RES1               0.0000
     16 C16        245.4845 -14.7497  51.4673 C.ar           1 RES1               0.0000
     17 O17        247.1088 -10.6789  45.7179 O.2            1 RES1               0.0000
     18 H18        250.1524 -13.4032  50.0310 H              1 RES1               0.0000
     19 H19        249.9148 -14.7791  48.9387 H              1 RES1               0.0000
     20 H20        248.5268 -13.2949  51.4479 H              1 RES1               0.0000
     21 H21        246.0008 -14.3607  48.1582 H              1 RES1               0.0000
     22 H22        247.0636 -13.1446  45.6249 H              1 RES1               0.0000
     23 H23        248.0586  -9.9264  47.8947 H              1 RES1               0.0000
     24 H24        251.9268 -13.4855  48.3101 H              1 RES1               0.0000
     25 H25        250.7199 -13.3956  47.0294 H              1 RES1               0.0000
     26 H26        250.9561 -12.0279  48.1152 H              1 RES1               0.0000
     27 H27        246.8452 -14.1663  53.0091 H              1 RES1               0.0000
     28 H28        244.3327 -15.2271  49.7315 H              1 RES1               0.0000
     29 H29        244.7432 -15.1344  52.1599 H              1 RES1               0.0000
@<TRIPOS>BOND
    1    1    2 1     
    2    1    3 1     
    3    1    4 1     
    4    1    5 1     
    5    2    6 ar    
    6    2    7 ar    
    7    3    8 1     
    8    3    9 2     
    9    4   10 1     
   10    4   11 2     
   11    5   12 1     
   12    5   18 1     
   13    5   19 1     
   14    6   13 ar    
   15    6   20 1     
   16    7   14 ar    
   17    7   21 1     
   18    8   15 1     
   19    8   22 1     
   20   10   15 1     
   21   10   23 1     
   22   12   24 1     
   23   12   25 1     
   24   12   26 1     
   25   13   16 ar    
   26   13   27 1     
   27   14   16 ar    
   28   14   28 1     
   29   15   17 2     
   30   16   29 1     
@<TRIPOS>SUBSTRUCTURE
      1 RES1           1
@<TRIPOS>SET
DONOR_HYDROGENS      STATIC     ATOMS    <user>   **** ""
2 22 23
ATOM$RED        STATIC     ATOMS    COLORGROUP SYSTEM
2 22 23
@<TRIPOS>COMMENT
> <Gold.Version>
2022.3.0

> <Gold.Id.Protein>
unknown|4v3u_clean|pdb

> <Gold.Protein.RotatedTorsions>
[ 6612 6571 6572 6573 ] final -169.86 input  122.18 | X-H torsion
[ 6698 6659 6660 6661 ] final   -5.36 input  126.07 | X-H torsion
[ 8064 8023 8024 8025 ] final  124.47 input   40.84 | X-H torsion
[ 8135 8102 8103 8104 ] final   85.58 input  100.47 | X-H torsion
[ 8201 8164 8165 8166 ] final   77.44 input   73.50 | X-H torsion
[ 8278 8240 8241 8242 ] final -128.92 input   88.79 | X-H torsion
[ 9578 9542 9541 9539 ] final -118.50 input   60.02 | X-H torsion
[ 8331 8311 8312 8313 ] final  131.17 input   92.25 | X-H torsion
[ 7986 7938 7939 7940 ] final  -13.95 input   70.73 | X-H torsion
[ 7906 7885 7886 7887 ] final  -48.02 input  102.20 | X-H torsion
[ 6850 6802 6803 6804 ] final  141.32 input  120.36 | X-H torsion
[ 10224 10183 10184 10185 ] final  -62.10 input   40.62 | X-H torsion
[ 7910 7890 7889 7886 ] final   67.97 input   60.02 | X-H torsion
[ 27200 6334 6333 6332 ] final  166.76 input    0.00 | X-H torsion
[ 27202 6498 6497 6496 ] final  149.90 input   -0.00 | X-H torsion
[ 27205 6574 6573 6572 ] final -105.82 input   -0.00 | X-H torsion
[ 27208 7888 7887 7886 ] final -104.07 input    0.00 | X-H torsion
[ 27211 8026 8025 8024 ] final    9.97 input   -0.00 | X-H torsion
[ 27214 8105 8104 8103 ] final  103.41 input    0.00 | X-H torsion
[ 27217 8167 8166 8165 ] final -164.90 input    0.00 | X-H torsion
[ 27222 10096 10095 10094 ] final  161.12 input   -0.00 | X-H torsion
[ 27225 10186 10185 10184 ] final  128.25 input    0.00 | X-H torsion
[ 27228 7941 7940 7939 ] final  -59.97 input    0.00 | X-H torsion
[ 27230 7733 7732 7731 ] final -143.50 input   -0.00 | X-H torsion
[ 27232 7816 7815 7814 ] final   91.12 input   -0.00 | X-H torsion

> <Gold.Protein.ActiveResidues>
 ASP403  THR404  LEU406  ILE407  TYR408  ALA410  LYS411  TRP414  GLN425  TRP426 
 SER427  LYS428  LEU429  GLN430  VAL431  PHE432  ASP433  TYR453  SER462  ALA463 
 ILE464 

> <Gold.Protein.RotatedAtoms>
  242.7090   -7.7855   50.4910 H   0  0  0  0  0  0  0  0  0  0  0  0  # atno 6612 bound_to 6571
  240.3598   -7.2845   48.2509 H   0  0  0  0  0  0  0  0  0  0  0  0  # atno 6698 bound_to 6659
  241.1388   -5.1594   45.3021 H   0  0  0  0  0  0  0  0  0  0  0  0  # atno 6850 bound_to 6802
  241.1362   -6.5657   37.9398 H   0  0  0  0  0  0  0  0  0  0  0  0  # atno 7906 bound_to 7885
  240.2317   -9.7285   36.1256 H   0  0  0  0  0  0  0  0  0  0  0  0  # atno 7910 bound_to 7890
  242.5668   -7.8388   38.4687 H   0  0  0  0  0  0  0  0  0  0  0  0  # atno 7986 bound_to 7938
  244.1172   -8.0700   39.7941 H   0  0  0  0  0  0  0  0  0  0  0  0  # atno 8064 bound_to 8023
  248.3604   -7.2667   41.3126 H   0  0  0  0  0  0  0  0  0  0  0  0  # atno 8135 bound_to 8102
  247.7341   -9.0200   45.3438 H   0  0  0  0  0  0  0  0  0  0  0  0  # atno 8201 bound_to 8164
  249.4155   -7.3933   47.2240 H   0  0  0  0  0  0  0  0  0  0  0  0  # atno 8278 bound_to 8240
  249.7243   -8.0189   50.7638 H   0  0  0  0  0  0  0  0  0  0  0  0  # atno 8331 bound_to 8311
  251.7020  -10.6511   39.5178 H   0  0  0  0  0  0  0  0  0  0  0  0  # atno 9578 bound_to 9542
  250.4880   -3.7059   43.7177 H   0  0  0  0  0  0  0  0  0  0  0  0  # atno 10224 bound_to 10183
  241.7165  -10.0652   50.9758 LP  0  0  0  0  0  0  0  0  0  0  0  0  # atno 27200 bound_to 6334
  242.7330   -9.1457   52.0348 LP  0  0  0  0  0  0  0  0  0  0  0  0  # atno 27201 bound_to 6334
  242.2357   -5.4419   48.7641 LP  0  0  0  0  0  0  0  0  0  0  0  0  # atno 27202 bound_to 6498
  241.0708   -4.6942   49.8053 LP  0  0  0  0  0  0  0  0  0  0  0  0  # atno 27203 bound_to 6498
  241.0244   -7.3961   50.2194 LP  0  0  0  0  0  0  0  0  0  0  0  0  # atno 27204 bound_to 6571
  240.7781   -5.9076   46.6171 LP  0  0  0  0  0  0  0  0  0  0  0  0  # atno 27205 bound_to 6574
  241.4250   -7.2686   45.7631 LP  0  0  0  0  0  0  0  0  0  0  0  0  # atno 27206 bound_to 6574
  239.8527   -8.9587   48.2135 LP  0  0  0  0  0  0  0  0  0  0  0  0  # atno 27207 bound_to 6659
  242.4895   -9.8736   40.3399 LP  0  0  0  0  0  0  0  0  0  0  0  0  # atno 27208 bound_to 7888
  241.7059  -10.9868   39.2691 LP  0  0  0  0  0  0  0  0  0  0  0  0  # atno 27209 bound_to 7888
  245.5222   -9.0800   39.5329 LP  0  0  0  0  0  0  0  0  0  0  0  0  # atno 27210 bound_to 8023
  244.9849   -8.8933   42.5417 LP  0  0  0  0  0  0  0  0  0  0  0  0  # atno 27211 bound_to 8026
  246.4004   -9.0467   43.5280 LP  0  0  0  0  0  0  0  0  0  0  0  0  # atno 27212 bound_to 8026
  246.9653   -8.2102   41.7753 LP  0  0  0  0  0  0  0  0  0  0  0  0  # atno 27213 bound_to 8102
  248.2404   -5.6467   44.0463 LP  0  0  0  0  0  0  0  0  0  0  0  0  # atno 27214 bound_to 8105
  249.8925   -6.1529   44.1657 LP  0  0  0  0  0  0  0  0  0  0  0  0  # atno 27215 bound_to 8105
  248.4778   -7.6669   44.5252 LP  0  0  0  0  0  0  0  0  0  0  0  0  # atno 27216 bound_to 8164
  249.3077   -8.7623   48.9573 LP  0  0  0  0  0  0  0  0  0  0  0  0  # atno 27217 bound_to 8167
  248.2558   -9.3881   47.7319 LP  0  0  0  0  0  0  0  0  0  0  0  0  # atno 27218 bound_to 8167
  249.2989   -5.7052   47.6548 LP  0  0  0  0  0  0  0  0  0  0  0  0  # atno 27219 bound_to 8240
  251.0998  -10.6488   41.0293 LP  0  0  0  0  0  0  0  0  0  0  0  0  # atno 27220 bound_to 9542
  252.0436  -11.8823   40.5251 LP  0  0  0  0  0  0  0  0  0  0  0  0  # atno 27221 bound_to 9542
  249.9578   -6.6359   40.8571 LP  0  0  0  0  0  0  0  0  0  0  0  0  # atno 27222 bound_to 10096
  249.1223   -6.9965   39.3834 LP  0  0  0  0  0  0  0  0  0  0  0  0  # atno 27223 bound_to 10096
  250.6904   -6.5675   50.6533 LP  0  0  0  0  0  0  0  0  0  0  0  0  # atno 27224 bound_to 8311
  250.9792   -4.5792   46.8456 LP  0  0  0  0  0  0  0  0  0  0  0  0  # atno 27225 bound_to 10186
  249.2739   -4.7311   46.5834 LP  0  0  0  0  0  0  0  0  0  0  0  0  # atno 27226 bound_to 10186
  242.0836   -9.0619   37.3195 LP  0  0  0  0  0  0  0  0  0  0  0  0  # atno 27227 bound_to 7938
  246.3539   -7.7034   37.2555 LP  0  0  0  0  0  0  0  0  0  0  0  0  # atno 27228 bound_to 7941
  245.5704   -6.4110   38.1016 LP  0  0  0  0  0  0  0  0  0  0  0  0  # atno 27229 bound_to 7941
  242.4893   -6.9166   36.9685 LP  0  0  0  0  0  0  0  0  0  0  0  0  # atno 27230 bound_to 7733
  243.8741   -6.3676   36.0848 LP  0  0  0  0  0  0  0  0  0  0  0  0  # atno 27231 bound_to 7733
  240.5987   -5.8945   40.1690 LP  0  0  0  0  0  0  0  0  0  0  0  0  # atno 27232 bound_to 7816
  242.2227   -6.1853   39.6416 LP  0  0  0  0  0  0  0  0  0  0  0  0  # atno 27233 bound_to 7816
  239.7884   -7.1457   36.9919 LP  0  0  0  0  0  0  0  0  0  0  0  0  # atno 27234 bound_to 7885

> <Gold.Score>
     Fitness  S(hb_ext) S(vdw_ext)  S(hb_int)    S(int)      intcor
     19.98       3.45      13.35       0.00      -1.83      -0.75

> <Gold.Goldscore.Fitness>
19.9781

> <Gold.Goldscore.Internal.Vdw>
-2.2149

> <Gold.Goldscore.Internal.Torsion>
-0.3694

> <Gold.Goldscore.External.Vdw>
13.3493

> <Gold.Goldscore.Internal.HBond>
0.0000

> <Gold.Goldscore.External.HBond>
3.4523

> <Gold.Goldscore.Internal.Correction>
-0.7548

> <Gold.Goldscore.Hbonds>
donor molecule, donor type, donor heavy atom, donor atom, acceptor molecule, acceptor atom, score
      P1  H  8164  8201       L1    17  1.00
      P1  H  8311  8331       L1    11  0.09
      L1  H    10    23       P1  8167  0.64

> <Gold.Goldscore.Internal.Vdw.Weighted>
-2.2149

> <Gold.Goldscore.Internal.Torsion.Weighted>
-0.3694

> <Gold.Goldscore.External.Vdw.Weighted>
18.3553

> <Gold.Goldscore.Internal.HBond.Weighted>
0.0000

> <Gold.Goldscore.External.HBond.Weighted>
3.4523

> <Gold.Goldscore.Internal.Correction.Weighted>
-0.7548

> <Gold.Rescore>
     Score     S(PLP)   S(hbond)     S(cho)   S(metal)  DE(clash)   DE(tors)     intcor
     21.87     -17.30       1.99       0.00       0.00       1.30       0.05       ----

> <Gold.PLP.Fitness>
21.8705

> <Gold.PLP.PLP>
-17.3037

> <Gold.PLP.part.hbond>
-2.0000

> <Gold.PLP.part.metal>
0.0000

> <Gold.PLP.part.buried>
-4.2925

> <Gold.PLP.part.nonpolar>
-12.0596

> <Gold.PLP.part.repulsive>
0.3856

> <Gold.PLP.ligand.clash>
1.3030

> <Gold.PLP.ligand.torsion>
0.0531

> <Gold.PLP.Chemscore.Hbond>
1.9920

> <Gold.PLP.Chemscore.CHOScore>
0.0000

> <Gold.PLP.Chemscore.Metal>
0.0000

> <Gold.Chemscore.Hbonds>
donor molecule, donor type, donor heavy atom, donor atom, acceptor molecule, acceptor atom, score
      L1  H    10    23       P1  8167  0.75
      P1  H  8164  8201       L1    17  1.00

> <Gold.PLP.Chemscore.Internal.Correction>
   9.000000E+99

