#       Name:                CT1002167954
#       Creating user name   hitesit
#       Creation time:       Sun Apr 16 20:33:10 2023


#       File generated by GOLD software.
#

@<TRIPOS>MOLECULE
CT1002167954|ligand_prepared|mol2|1|dock5
    29    30     1
SMALL
NO_CHARGES


@<TRIPOS>ATOM
      1 C1         246.8662 -13.2774  44.7514 C.3            1 RES1               0.0000
      2 C2         247.7977 -13.2361  43.5228 C.ar           1 RES1               0.0000
      3 C3         247.4757 -12.3327  45.7831 C.2            1 RES1               0.0000
      4 C4         245.4881 -12.8525  44.2564 C.2            1 RES1               0.0000
      5 C5         246.7335 -14.6804  45.3881 C.3            1 RES1               0.0000
      6 C6         247.6650 -12.2339  42.5663 C.ar           1 RES1               0.0000
      7 C7         248.7942 -14.1899  43.3339 C.ar           1 RES1               0.0000
      8 N8         246.8578 -11.1337  45.9847 N.am           1 RES1               0.0000
      9 O9         248.5051 -12.6187  46.3819 O.2            1 RES1               0.0000
     10 N10        244.9706 -11.6752  44.7297 N.am           1 RES1               0.0000
     11 O11        244.8528 -13.5183  43.4481 O.2            1 RES1               0.0000
     12 C12        245.6142 -14.7859  46.4119 C.3            1 RES1               0.0000
     13 C13        248.5001 -12.1853  41.4625 C.ar           1 RES1               0.0000
     14 C14        249.6282 -14.1395  42.2292 C.ar           1 RES1               0.0000
     15 C15        245.6062 -10.7813  45.5478 C.2            1 RES1               0.0000
     16 C16        249.4825 -13.1377  41.2934 C.ar           1 RES1               0.0000
     17 O17        245.0964  -9.7172  45.8866 O.2            1 RES1               0.0000
     18 H18        246.5543 -15.4138  44.5922 H              1 RES1               0.0000
     19 H19        247.6823 -14.9386  45.8745 H              1 RES1               0.0000
     20 H20        246.8960 -11.4773  42.6812 H              1 RES1               0.0000
     21 H21        248.9265 -14.9878  44.0567 H              1 RES1               0.0000
     22 H22        247.3742 -10.4344  46.5088 H              1 RES1               0.0000
     23 H23        244.0239 -11.4438  44.4459 H              1 RES1               0.0000
     24 H24        245.5649 -15.7901  46.8274 H              1 RES1               0.0000
     25 H25        245.7736 -14.0876  47.2310 H              1 RES1               0.0000
     26 H26        244.6523 -14.5600  45.9563 H              1 RES1               0.0000
     27 H27        248.3805 -11.3956  40.7282 H              1 RES1               0.0000
     28 H28        250.3996 -14.8915  42.0999 H              1 RES1               0.0000
     29 H29        250.1369 -13.0991  40.4288 H              1 RES1               0.0000
@<TRIPOS>BOND
    1    1    2 1     
    2    1    3 1     
    3    1    4 1     
    4    1    5 1     
    5    2    6 ar    
    6    2    7 ar    
    7    3    8 1     
    8    3    9 2     
    9    4   10 1     
   10    4   11 2     
   11    5   12 1     
   12    5   18 1     
   13    5   19 1     
   14    6   13 ar    
   15    6   20 1     
   16    7   14 ar    
   17    7   21 1     
   18    8   15 1     
   19    8   22 1     
   20   10   15 1     
   21   10   23 1     
   22   12   24 1     
   23   12   25 1     
   24   12   26 1     
   25   13   16 ar    
   26   13   27 1     
   27   14   16 ar    
   28   14   28 1     
   29   15   17 2     
   30   16   29 1     
@<TRIPOS>SUBSTRUCTURE
      1 RES1           1
@<TRIPOS>SET
DONOR_HYDROGENS      STATIC     ATOMS    <user>   **** ""
2 22 23
ATOM$RED        STATIC     ATOMS    COLORGROUP SYSTEM
2 22 23
@<TRIPOS>COMMENT
> <Gold.Version>
2022.3.0

> <Gold.Id.Protein>
unknown|4v3u_clean|pdb

> <Gold.Protein.RotatedTorsions>
[ 6612 6571 6572 6573 ] final  -90.68 input  122.18 | X-H torsion
[ 6698 6659 6660 6661 ] final  145.88 input  126.07 | X-H torsion
[ 8064 8023 8024 8025 ] final   76.50 input   40.84 | X-H torsion
[ 8135 8102 8103 8104 ] final   47.47 input  100.47 | X-H torsion
[ 8201 8164 8165 8166 ] final  111.49 input   73.50 | X-H torsion
[ 8278 8240 8241 8242 ] final  108.62 input   88.79 | X-H torsion
[ 9578 9542 9541 9539 ] final  179.08 input   60.02 | X-H torsion
[ 8331 8311 8312 8313 ] final  -15.52 input   92.25 | X-H torsion
[ 7986 7938 7939 7940 ] final   22.47 input   70.73 | X-H torsion
[ 7906 7885 7886 7887 ] final  -89.95 input  102.20 | X-H torsion
[ 6850 6802 6803 6804 ] final   -7.74 input  120.36 | X-H torsion
[ 10224 10183 10184 10185 ] final  -30.45 input   40.62 | X-H torsion
[ 7910 7890 7889 7886 ] final   70.75 input   60.02 | X-H torsion
[ 27200 6334 6333 6332 ] final  -80.25 input    0.00 | X-H torsion
[ 27202 6498 6497 6496 ] final  -10.11 input   -0.00 | X-H torsion
[ 27205 6574 6573 6572 ] final   71.45 input   -0.00 | X-H torsion
[ 27208 7888 7887 7886 ] final -102.24 input    0.00 | X-H torsion
[ 27211 8026 8025 8024 ] final  121.58 input   -0.00 | X-H torsion
[ 27214 8105 8104 8103 ] final -104.78 input    0.00 | X-H torsion
[ 27217 8167 8166 8165 ] final   -2.30 input    0.00 | X-H torsion
[ 27222 10096 10095 10094 ] final  -46.21 input   -0.00 | X-H torsion
[ 27225 10186 10185 10184 ] final    2.08 input    0.00 | X-H torsion
[ 27228 7941 7940 7939 ] final  -65.88 input    0.00 | X-H torsion
[ 27230 7733 7732 7731 ] final   83.66 input   -0.00 | X-H torsion
[ 27232 7816 7815 7814 ] final  -18.10 input   -0.00 | X-H torsion

> <Gold.Protein.ActiveResidues>
 ASP403  THR404  LEU406  ILE407  TYR408  ALA410  LYS411  TRP414  GLN425  TRP426 
 SER427  LYS428  LEU429  GLN430  VAL431  PHE432  ASP433  TYR453  SER462  ALA463 
 ILE464 

> <Gold.Protein.RotatedAtoms>
  242.2314   -6.7939   50.2172 H   0  0  0  0  0  0  0  0  0  0  0  0  # atno 6612 bound_to 6571
  239.6710   -8.8251   48.5861 H   0  0  0  0  0  0  0  0  0  0  0  0  # atno 6698 bound_to 6659
  240.3544   -3.6509   45.2588 H   0  0  0  0  0  0  0  0  0  0  0  0  # atno 6850 bound_to 6802
  240.5867   -6.3915   38.1980 H   0  0  0  0  0  0  0  0  0  0  0  0  # atno 7906 bound_to 7885
  240.2150   -9.7707   36.1233 H   0  0  0  0  0  0  0  0  0  0  0  0  # atno 7910 bound_to 7890
  242.6606   -7.6449   37.9613 H   0  0  0  0  0  0  0  0  0  0  0  0  # atno 7986 bound_to 7938
  244.2112   -8.5785   40.2986 H   0  0  0  0  0  0  0  0  0  0  0  0  # atno 8064 bound_to 8023
  248.0415   -6.9617   41.6827 H   0  0  0  0  0  0  0  0  0  0  0  0  # atno 8135 bound_to 8102
  247.3588   -8.7748   45.0845 H   0  0  0  0  0  0  0  0  0  0  0  0  # atno 8201 bound_to 8164
  249.8643   -5.9225   47.0720 H   0  0  0  0  0  0  0  0  0  0  0  0  # atno 8278 bound_to 8240
  250.9926   -6.9047   50.8674 H   0  0  0  0  0  0  0  0  0  0  0  0  # atno 8331 bound_to 8311
  251.1766  -10.2435   40.2239 H   0  0  0  0  0  0  0  0  0  0  0  0  # atno 9578 bound_to 9542
  250.3761   -4.0554   44.0406 H   0  0  0  0  0  0  0  0  0  0  0  0  # atno 10224 bound_to 10183
  241.7927   -8.9973   51.9452 LP  0  0  0  0  0  0  0  0  0  0  0  0  # atno 27200 bound_to 6334
  242.6568  -10.2136   51.0655 LP  0  0  0  0  0  0  0  0  0  0  0  0  # atno 27201 bound_to 6334
  241.3250   -4.5956   49.9321 LP  0  0  0  0  0  0  0  0  0  0  0  0  # atno 27202 bound_to 6498
  241.9815   -5.5405   48.6374 LP  0  0  0  0  0  0  0  0  0  0  0  0  # atno 27203 bound_to 6498
  241.4862   -8.3549   50.4841 LP  0  0  0  0  0  0  0  0  0  0  0  0  # atno 27204 bound_to 6571
  241.4625   -7.2579   45.7764 LP  0  0  0  0  0  0  0  0  0  0  0  0  # atno 27205 bound_to 6574
  240.7406   -5.9183   46.6037 LP  0  0  0  0  0  0  0  0  0  0  0  0  # atno 27206 bound_to 6574
  240.5210   -7.4642   47.8883 LP  0  0  0  0  0  0  0  0  0  0  0  0  # atno 27207 bound_to 6659
  242.4650   -9.8684   40.3518 LP  0  0  0  0  0  0  0  0  0  0  0  0  # atno 27208 bound_to 7888
  241.7304  -10.9920   39.2572 LP  0  0  0  0  0  0  0  0  0  0  0  0  # atno 27209 bound_to 7888
  245.4311   -8.5872   39.0440 LP  0  0  0  0  0  0  0  0  0  0  0  0  # atno 27210 bound_to 8023
  246.1486   -9.6773   42.8304 LP  0  0  0  0  0  0  0  0  0  0  0  0  # atno 27211 bound_to 8026
  245.2367   -8.2627   43.2393 LP  0  0  0  0  0  0  0  0  0  0  0  0  # atno 27212 bound_to 8026
  247.2778   -8.5091   41.4124 LP  0  0  0  0  0  0  0  0  0  0  0  0  # atno 27213 bound_to 8102
  249.7760   -6.0872   44.5658 LP  0  0  0  0  0  0  0  0  0  0  0  0  # atno 27214 bound_to 8105
  248.3568   -5.7124   43.6463 LP  0  0  0  0  0  0  0  0  0  0  0  0  # atno 27215 bound_to 8105
  248.8441   -7.9062   44.7783 LP  0  0  0  0  0  0  0  0  0  0  0  0  # atno 27216 bound_to 8164
  248.0741   -9.3003   47.8990 LP  0  0  0  0  0  0  0  0  0  0  0  0  # atno 27217 bound_to 8167
  249.4894   -8.8500   48.7902 LP  0  0  0  0  0  0  0  0  0  0  0  0  # atno 27218 bound_to 8167
  248.8587   -7.1479   47.8039 LP  0  0  0  0  0  0  0  0  0  0  0  0  # atno 27219 bound_to 8240
  251.5517  -11.5007   41.1862 LP  0  0  0  0  0  0  0  0  0  0  0  0  # atno 27220 bound_to 9542
  252.1209  -11.4410   39.6568 LP  0  0  0  0  0  0  0  0  0  0  0  0  # atno 27221 bound_to 9542
  248.8232   -6.8844   39.6391 LP  0  0  0  0  0  0  0  0  0  0  0  0  # atno 27222 bound_to 10096
  250.2569   -6.7479   40.6014 LP  0  0  0  0  0  0  0  0  0  0  0  0  # atno 27223 bound_to 10096
  249.4485   -7.6584   50.5517 LP  0  0  0  0  0  0  0  0  0  0  0  0  # atno 27224 bound_to 8311
  249.7399   -4.8451   45.9632 LP  0  0  0  0  0  0  0  0  0  0  0  0  # atno 27225 bound_to 10186
  250.5132   -4.4652   47.4658 LP  0  0  0  0  0  0  0  0  0  0  0  0  # atno 27226 bound_to 10186
  241.9917   -9.2518   37.8167 LP  0  0  0  0  0  0  0  0  0  0  0  0  # atno 27227 bound_to 7938
  246.4165   -7.7010   37.3193 LP  0  0  0  0  0  0  0  0  0  0  0  0  # atno 27228 bound_to 7941
  245.5079   -6.4133   38.0378 LP  0  0  0  0  0  0  0  0  0  0  0  0  # atno 27229 bound_to 7941
  243.7115   -5.9639   36.6240 LP  0  0  0  0  0  0  0  0  0  0  0  0  # atno 27230 bound_to 7733
  242.6520   -7.3202   36.4294 LP  0  0  0  0  0  0  0  0  0  0  0  0  # atno 27231 bound_to 7733
  241.7941   -5.2830   39.7318 LP  0  0  0  0  0  0  0  0  0  0  0  0  # atno 27232 bound_to 7816
  241.0273   -6.7968   40.0788 LP  0  0  0  0  0  0  0  0  0  0  0  0  # atno 27233 bound_to 7816
  240.3264   -7.3163   36.7390 LP  0  0  0  0  0  0  0  0  0  0  0  0  # atno 27234 bound_to 7885

> <Gold.Score>
     Fitness  S(hb_ext) S(vdw_ext)  S(hb_int)    S(int)      intcor
     21.37       1.19      14.81       0.00      -0.18      -0.77

> <Gold.Goldscore.Fitness>
21.3668

> <Gold.Goldscore.Internal.Vdw>
-0.3780

> <Gold.Goldscore.Internal.Torsion>
-0.5761

> <Gold.Goldscore.External.Vdw>
14.8084

> <Gold.Goldscore.Internal.HBond>
0.0000

> <Gold.Goldscore.External.HBond>
1.1900

> <Gold.Goldscore.Internal.Correction>
-0.7693

> <Gold.Goldscore.Hbonds>
donor molecule, donor type, donor heavy atom, donor atom, acceptor molecule, acceptor atom, score
      P1  H  8109  8141       L1     9  0.04
      P1  H  8164  8201       L1    17  0.04
      L1  H     8    22       P1  8167  0.51

> <Gold.Goldscore.Internal.Vdw.Weighted>
-0.3780

> <Gold.Goldscore.Internal.Torsion.Weighted>
-0.5761

> <Gold.Goldscore.External.Vdw.Weighted>
20.3616

> <Gold.Goldscore.Internal.HBond.Weighted>
0.0000

> <Gold.Goldscore.External.HBond.Weighted>
1.1900

> <Gold.Goldscore.Internal.Correction.Weighted>
-0.7693

> <Gold.Rescore>
     Score     S(PLP)   S(hbond)     S(cho)   S(metal)  DE(clash)   DE(tors)     intcor
     14.38      -8.53       2.00       0.00       0.00       0.00       0.07       ----

> <Gold.PLP.Fitness>
14.3805

> <Gold.PLP.PLP>
-8.5276

> <Gold.PLP.part.hbond>
-2.4335

> <Gold.PLP.part.metal>
0.0000

> <Gold.PLP.part.buried>
0.2942

> <Gold.PLP.part.nonpolar>
-6.8200

> <Gold.PLP.part.repulsive>
0.3852

> <Gold.PLP.ligand.clash>
0.0000

> <Gold.PLP.ligand.torsion>
0.0735

> <Gold.PLP.Chemscore.Hbond>
2.0000

> <Gold.PLP.Chemscore.CHOScore>
0.0000

> <Gold.PLP.Chemscore.Metal>
0.0000

> <Gold.Chemscore.Hbonds>
donor molecule, donor type, donor heavy atom, donor atom, acceptor molecule, acceptor atom, score
      P1  H  8109  8141       L1     9  0.75

> <Gold.PLP.Chemscore.Internal.Correction>
   9.000000E+99

