#       Name:                CT1002167954
#       Creating user name   hitesit
#       Creation time:       Sun Apr 16 20:33:11 2023


#       File generated by GOLD software.
#

@<TRIPOS>MOLECULE
CT1002167954|ligand_prepared|mol2|1|dock7
    29    30     1
SMALL
NO_CHARGES


@<TRIPOS>ATOM
      1 C1         245.4853 -12.5827  43.8443 C.3            1 RES1               0.0000
      2 C2         245.6682 -12.1462  42.3764 C.ar           1 RES1               0.0000
      3 C3         246.7766 -13.2898  44.2451 C.2            1 RES1               0.0000
      4 C4         245.2012 -11.3107  44.6354 C.2            1 RES1               0.0000
      5 C5         244.3037 -13.5560  44.0642 C.3            1 RES1               0.0000
      6 C6         244.6547 -12.3507  41.4448 C.ar           1 RES1               0.0000
      7 C7         246.8415 -11.5366  41.9403 C.ar           1 RES1               0.0000
      8 N8         247.6294 -12.6249  45.0762 N.am           1 RES1               0.0000
      9 O9         247.0609 -14.3978  43.8071 O.2            1 RES1               0.0000
     10 N10        246.1284 -10.9099  45.5614 N.am           1 RES1               0.0000
     11 O11        244.1907 -10.6428  44.4534 O.2            1 RES1               0.0000
     12 C12        244.2590 -14.1609  45.4585 C.3            1 RES1               0.0000
     13 C13        244.8075 -11.9573  40.1257 C.ar           1 RES1               0.0000
     14 C14        246.9923 -11.1441  40.6205 C.ar           1 RES1               0.0000
     15 C15        247.3440 -11.4926  45.7959 C.2            1 RES1               0.0000
     16 C16        245.9760 -11.3534  39.7127 C.ar           1 RES1               0.0000
     17 O17        248.1476 -11.0418  46.6072 O.2            1 RES1               0.0000
     18 H18        243.3650 -13.0184  43.8823 H              1 RES1               0.0000
     19 H19        244.3733 -14.3675  43.3293 H              1 RES1               0.0000
     20 H20        243.7290 -12.8266  41.7508 H              1 RES1               0.0000
     21 H21        247.6548 -11.3628  42.6367 H              1 RES1               0.0000
     22 H22        248.5659 -13.0047  45.1713 H              1 RES1               0.0000
     23 H23        245.8902 -10.1025  46.1286 H              1 RES1               0.0000
     24 H24        243.4115 -14.8357  45.5592 H              1 RES1               0.0000
     25 H25        245.1669 -14.7243  45.6639 H              1 RES1               0.0000
     26 H26        244.1646 -13.3832  46.2136 H              1 RES1               0.0000
     27 H27        244.0052 -12.1255  39.4148 H              1 RES1               0.0000
     28 H28        247.9139 -10.6698  40.2998 H              1 RES1               0.0000
     29 H29        246.0952 -11.0449  38.6794 H              1 RES1               0.0000
@<TRIPOS>BOND
    1    1    2 1     
    2    1    3 1     
    3    1    4 1     
    4    1    5 1     
    5    2    6 ar    
    6    2    7 ar    
    7    3    8 1     
    8    3    9 2     
    9    4   10 1     
   10    4   11 2     
   11    5   12 1     
   12    5   18 1     
   13    5   19 1     
   14    6   13 ar    
   15    6   20 1     
   16    7   14 ar    
   17    7   21 1     
   18    8   15 1     
   19    8   22 1     
   20   10   15 1     
   21   10   23 1     
   22   12   24 1     
   23   12   25 1     
   24   12   26 1     
   25   13   16 ar    
   26   13   27 1     
   27   14   16 ar    
   28   14   28 1     
   29   15   17 2     
   30   16   29 1     
@<TRIPOS>SUBSTRUCTURE
      1 RES1           1
@<TRIPOS>SET
DONOR_HYDROGENS      STATIC     ATOMS    <user>   **** ""
2 22 23
ATOM$RED        STATIC     ATOMS    COLORGROUP SYSTEM
2 22 23
@<TRIPOS>COMMENT
> <Gold.Version>
2022.3.0

> <Gold.Id.Protein>
unknown|4v3u_clean|pdb

> <Gold.Protein.RotatedTorsions>
[ 6612 6571 6572 6573 ] final  -97.70 input  122.18 | X-H torsion
[ 6698 6659 6660 6661 ] final   11.05 input  126.07 | X-H torsion
[ 8064 8023 8024 8025 ] final  141.63 input   40.84 | X-H torsion
[ 8135 8102 8103 8104 ] final   82.78 input  100.47 | X-H torsion
[ 8201 8164 8165 8166 ] final   32.23 input   73.50 | X-H torsion
[ 8278 8240 8241 8242 ] final  -25.85 input   88.79 | X-H torsion
[ 9578 9542 9541 9539 ] final   18.88 input   60.02 | X-H torsion
[ 8331 8311 8312 8313 ] final   96.03 input   92.25 | X-H torsion
[ 7986 7938 7939 7940 ] final   10.69 input   70.73 | X-H torsion
[ 7906 7885 7886 7887 ] final  -51.34 input  102.20 | X-H torsion
[ 6850 6802 6803 6804 ] final  133.22 input  120.36 | X-H torsion
[ 10224 10183 10184 10185 ] final   39.67 input   40.62 | X-H torsion
[ 7910 7890 7889 7886 ] final   24.69 input   60.02 | X-H torsion
[ 27200 6334 6333 6332 ] final  -75.67 input    0.00 | X-H torsion
[ 27202 6498 6497 6496 ] final -158.65 input   -0.00 | X-H torsion
[ 27205 6574 6573 6572 ] final  175.44 input   -0.00 | X-H torsion
[ 27208 7888 7887 7886 ] final -163.73 input    0.00 | X-H torsion
[ 27211 8026 8025 8024 ] final    8.70 input   -0.00 | X-H torsion
[ 27214 8105 8104 8103 ] final -151.62 input    0.00 | X-H torsion
[ 27217 8167 8166 8165 ] final -127.15 input    0.00 | X-H torsion
[ 27222 10096 10095 10094 ] final  -48.53 input   -0.00 | X-H torsion
[ 27225 10186 10185 10184 ] final   16.66 input    0.00 | X-H torsion
[ 27228 7941 7940 7939 ] final  -36.57 input    0.00 | X-H torsion
[ 27230 7733 7732 7731 ] final  109.34 input   -0.00 | X-H torsion
[ 27232 7816 7815 7814 ] final  171.37 input   -0.00 | X-H torsion

> <Gold.Protein.ActiveResidues>
 ASP403  THR404  LEU406  ILE407  TYR408  ALA410  LYS411  TRP414  GLN425  TRP426 
 SER427  LYS428  LEU429  GLN430  VAL431  PHE432  ASP433  TYR453  SER462  ALA463 
 ILE464 

> <Gold.Protein.RotatedAtoms>
  242.3263   -6.8429   50.2397 H   0  0  0  0  0  0  0  0  0  0  0  0  # atno 6612 bound_to 6571
  240.2358   -7.2897   48.4719 H   0  0  0  0  0  0  0  0  0  0  0  0  # atno 6698 bound_to 6659
  241.0202   -5.1730   45.3383 H   0  0  0  0  0  0  0  0  0  0  0  0  # atno 6850 bound_to 6802
  241.1026   -6.5445   37.9720 H   0  0  0  0  0  0  0  0  0  0  0  0  # atno 7906 bound_to 7885
  240.2147   -9.0399   36.1771 H   0  0  0  0  0  0  0  0  0  0  0  0  # atno 7910 bound_to 7890
  242.6439   -7.6741   38.1391 H   0  0  0  0  0  0  0  0  0  0  0  0  # atno 7986 bound_to 7938
  244.2062   -7.9572   39.5712 H   0  0  0  0  0  0  0  0  0  0  0  0  # atno 8064 bound_to 8023
  248.3462   -7.2351   41.3382 H   0  0  0  0  0  0  0  0  0  0  0  0  # atno 8135 bound_to 8102
  248.4024   -8.9785   45.4614 H   0  0  0  0  0  0  0  0  0  0  0  0  # atno 8201 bound_to 8164
  248.7207   -6.5345   48.0518 H   0  0  0  0  0  0  0  0  0  0  0  0  # atno 8278 bound_to 8240
  250.2039   -8.1288   50.9685 H   0  0  0  0  0  0  0  0  0  0  0  0  # atno 8331 bound_to 8311
  251.9198  -11.8379   40.7768 H   0  0  0  0  0  0  0  0  0  0  0  0  # atno 9578 bound_to 9542
  249.4556   -4.4546   44.2730 H   0  0  0  0  0  0  0  0  0  0  0  0  # atno 10224 bound_to 10183
  241.8528   -8.9800   51.9748 LP  0  0  0  0  0  0  0  0  0  0  0  0  # atno 27200 bound_to 6334
  242.5967  -10.2310   51.0359 LP  0  0  0  0  0  0  0  0  0  0  0  0  # atno 27201 bound_to 6334
  241.5151   -5.5781   48.5986 LP  0  0  0  0  0  0  0  0  0  0  0  0  # atno 27202 bound_to 6498
  241.7914   -4.5580   49.9708 LP  0  0  0  0  0  0  0  0  0  0  0  0  # atno 27203 bound_to 6498
  241.3945   -8.3076   50.4624 LP  0  0  0  0  0  0  0  0  0  0  0  0  # atno 27204 bound_to 6571
  240.2579   -6.6595   46.0079 LP  0  0  0  0  0  0  0  0  0  0  0  0  # atno 27205 bound_to 6574
  241.9452   -6.5167   46.3722 LP  0  0  0  0  0  0  0  0  0  0  0  0  # atno 27206 bound_to 6574
  239.9731   -8.9537   47.9992 LP  0  0  0  0  0  0  0  0  0  0  0  0  # atno 27207 bound_to 6659
  242.9514  -10.2962   39.7480 LP  0  0  0  0  0  0  0  0  0  0  0  0  # atno 27208 bound_to 7888
  241.2440  -10.5642   39.8610 LP  0  0  0  0  0  0  0  0  0  0  0  0  # atno 27209 bound_to 7888
  245.4360   -9.1893   39.7489 LP  0  0  0  0  0  0  0  0  0  0  0  0  # atno 27210 bound_to 8023
  244.9804   -8.8771   42.5511 LP  0  0  0  0  0  0  0  0  0  0  0  0  # atno 27211 bound_to 8026
  246.4049   -9.0629   43.5187 LP  0  0  0  0  0  0  0  0  0  0  0  0  # atno 27212 bound_to 8026
  246.9792   -8.2411   41.7502 LP  0  0  0  0  0  0  0  0  0  0  0  0  # atno 27213 bound_to 8102
  249.2421   -5.8923   44.9540 LP  0  0  0  0  0  0  0  0  0  0  0  0  # atno 27214 bound_to 8105
  248.8908   -5.9073   43.2580 LP  0  0  0  0  0  0  0  0  0  0  0  0  # atno 27215 bound_to 8105
  247.8253   -7.7073   44.4103 LP  0  0  0  0  0  0  0  0  0  0  0  0  # atno 27216 bound_to 8164
  248.7765   -8.6774   49.1139 LP  0  0  0  0  0  0  0  0  0  0  0  0  # atno 27217 bound_to 8167
  248.7870   -9.4729   47.5753 LP  0  0  0  0  0  0  0  0  0  0  0  0  # atno 27218 bound_to 8167
  249.9805   -6.5476   46.8428 LP  0  0  0  0  0  0  0  0  0  0  0  0  # atno 27219 bound_to 8240
  251.8597  -10.8807   39.4625 LP  0  0  0  0  0  0  0  0  0  0  0  0  # atno 27220 bound_to 9542
  251.0641  -10.4548   40.8235 LP  0  0  0  0  0  0  0  0  0  0  0  0  # atno 27221 bound_to 9542
  248.8045   -6.8738   39.6668 LP  0  0  0  0  0  0  0  0  0  0  0  0  # atno 27222 bound_to 10096
  250.2756   -6.7585   40.5737 LP  0  0  0  0  0  0  0  0  0  0  0  0  # atno 27223 bound_to 10096
  250.2208   -6.4598   50.4528 LP  0  0  0  0  0  0  0  0  0  0  0  0  # atno 27224 bound_to 8311
  249.9471   -4.8503   45.8901 LP  0  0  0  0  0  0  0  0  0  0  0  0  # atno 27225 bound_to 10186
  250.3060   -4.4600   47.5390 LP  0  0  0  0  0  0  0  0  0  0  0  0  # atno 27226 bound_to 10186
  242.0081   -9.2231   37.6425 LP  0  0  0  0  0  0  0  0  0  0  0  0  # atno 27227 bound_to 7938
  246.0725   -7.6460   37.0532 LP  0  0  0  0  0  0  0  0  0  0  0  0  # atno 27228 bound_to 7941
  245.8518   -6.4683   38.3039 LP  0  0  0  0  0  0  0  0  0  0  0  0  # atno 27229 bound_to 7941
  243.4628   -5.9206   36.9146 LP  0  0  0  0  0  0  0  0  0  0  0  0  # atno 27230 bound_to 7733
  242.9006   -7.3635   36.1387 LP  0  0  0  0  0  0  0  0  0  0  0  0  # atno 27231 bound_to 7733
  241.1521   -6.8553   40.0404 LP  0  0  0  0  0  0  0  0  0  0  0  0  # atno 27232 bound_to 7816
  241.6693   -5.2245   39.7702 LP  0  0  0  0  0  0  0  0  0  0  0  0  # atno 27233 bound_to 7816
  239.8213   -7.1664   36.9603 LP  0  0  0  0  0  0  0  0  0  0  0  0  # atno 27234 bound_to 7885

> <Gold.Score>
     Fitness  S(hb_ext) S(vdw_ext)  S(hb_int)    S(int)      intcor
     28.13       0.30      20.73       0.00      -0.66      -0.75

> <Gold.Goldscore.Fitness>
28.1320

> <Gold.Goldscore.Internal.Vdw>
-0.9072

> <Gold.Goldscore.Internal.Torsion>
-0.5112

> <Gold.Goldscore.External.Vdw>
20.7272

> <Gold.Goldscore.Internal.HBond>
0.0000

> <Gold.Goldscore.External.HBond>
0.2957

> <Gold.Goldscore.Internal.Correction>
-0.7548

> <Gold.Goldscore.Hbonds>
donor molecule, donor type, donor heavy atom, donor atom, acceptor molecule, acceptor atom, score
      P1  H  8164  8201       L1    17  0.15

> <Gold.Goldscore.Internal.Vdw.Weighted>
-0.9072

> <Gold.Goldscore.Internal.Torsion.Weighted>
-0.5112

> <Gold.Goldscore.External.Vdw.Weighted>
28.4999

> <Gold.Goldscore.Internal.HBond.Weighted>
0.0000

> <Gold.Goldscore.External.HBond.Weighted>
0.2957

> <Gold.Goldscore.Internal.Correction.Weighted>
-0.7548

> <Gold.Rescore>
     Score     S(PLP)   S(hbond)     S(cho)   S(metal)  DE(clash)   DE(tors)     intcor
     26.31     -22.32       1.99       0.00       0.00       0.00       0.99       ----

> <Gold.PLP.Fitness>
26.3050

> <Gold.PLP.PLP>
-22.3234

> <Gold.PLP.part.hbond>
-3.6015

> <Gold.PLP.part.metal>
0.0000

> <Gold.PLP.part.buried>
-2.6568

> <Gold.PLP.part.nonpolar>
-17.2222

> <Gold.PLP.part.repulsive>
0.8565

> <Gold.PLP.ligand.clash>
0.0000

> <Gold.PLP.ligand.torsion>
0.9936

> <Gold.PLP.Chemscore.Hbond>
1.9896

> <Gold.PLP.Chemscore.CHOScore>
0.0000

> <Gold.PLP.Chemscore.Metal>
0.0000

> <Gold.Chemscore.Hbonds>
donor molecule, donor type, donor heavy atom, donor atom, acceptor molecule, acceptor atom, score
      P1  H  6810  6861       L1    11  0.06
      P1  H  8164  8201       L1    17  0.19

> <Gold.PLP.Chemscore.Internal.Correction>
   9.000000E+99

