#       Name:                CT1002167954
#       Creating user name   hitesit
#       Creation time:       Sun Apr 16 20:33:09 2023


#       File generated by GOLD software.
#

@<TRIPOS>MOLECULE
CT1002167954|ligand_prepared|mol2|1|dock3
    29    30     1
SMALL
NO_CHARGES


@<TRIPOS>ATOM
      1 C1         246.8065 -12.2698  40.0324 C.3            1 RES1               0.0000
      2 C2         247.3288 -11.2866  38.9649 C.ar           1 RES1               0.0000
      3 C3         247.9236 -12.4185  41.0611 C.2            1 RES1               0.0000
      4 C4         245.5265 -11.6554  40.5883 C.2            1 RES1               0.0000
      5 C5         246.4614 -13.6708  39.4759 C.3            1 RES1               0.0000
      6 C6         247.9617 -10.1050  39.3390 C.ar           1 RES1               0.0000
      7 C7         247.1877 -11.5484  37.6047 C.ar           1 RES1               0.0000
      8 N8         247.7565 -11.8061  42.2681 N.am           1 RES1               0.0000
      9 O9         248.9526 -13.0305  40.8029 O.2            1 RES1               0.0000
     10 N10        245.5212 -11.2602  41.9003 N.am           1 RES1               0.0000
     11 O11        244.5280 -11.4948  39.8974 O.2            1 RES1               0.0000
     12 C12        246.1897 -14.7086  40.5536 C.3            1 RES1               0.0000
     13 C13        248.4389  -9.2185  38.3879 C.ar           1 RES1               0.0000
     14 C14        247.6655 -10.6604  36.6551 C.ar           1 RES1               0.0000
     15 C15        246.5880 -11.2795  42.7570 C.2            1 RES1               0.0000
     16 C16        248.2916  -9.4957  37.0455 C.ar           1 RES1               0.0000
     17 O17        246.5198 -10.8561  43.9073 O.2            1 RES1               0.0000
     18 H18        245.5755 -13.5876  38.8344 H              1 RES1               0.0000
     19 H19        247.2949 -14.0185  38.8531 H              1 RES1               0.0000
     20 H20        248.0845  -9.8687  40.3907 H              1 RES1               0.0000
     21 H21        246.6975 -12.4579  37.2744 H              1 RES1               0.0000
     22 H22        248.5762 -11.7329  42.8623 H              1 RES1               0.0000
     23 H23        244.6404 -10.9203  42.2730 H              1 RES1               0.0000
     24 H24        245.9529 -15.6731  40.1092 H              1 RES1               0.0000
     25 H25        247.0593 -14.8354  41.1950 H              1 RES1               0.0000
     26 H26        245.3501 -14.4071  41.1765 H              1 RES1               0.0000
     27 H27        248.9297  -8.3027  38.7002 H              1 RES1               0.0000
     28 H28        247.5467 -10.8823  35.5997 H              1 RES1               0.0000
     29 H29        248.6658  -8.8013  36.3005 H              1 RES1               0.0000
@<TRIPOS>BOND
    1    1    2 1     
    2    1    3 1     
    3    1    4 1     
    4    1    5 1     
    5    2    6 ar    
    6    2    7 ar    
    7    3    8 1     
    8    3    9 2     
    9    4   10 1     
   10    4   11 2     
   11    5   12 1     
   12    5   18 1     
   13    5   19 1     
   14    6   13 ar    
   15    6   20 1     
   16    7   14 ar    
   17    7   21 1     
   18    8   15 1     
   19    8   22 1     
   20   10   15 1     
   21   10   23 1     
   22   12   24 1     
   23   12   25 1     
   24   12   26 1     
   25   13   16 ar    
   26   13   27 1     
   27   14   16 ar    
   28   14   28 1     
   29   15   17 2     
   30   16   29 1     
@<TRIPOS>SUBSTRUCTURE
      1 RES1           1
@<TRIPOS>SET
DONOR_HYDROGENS      STATIC     ATOMS    <user>   **** ""
2 22 23
ATOM$RED        STATIC     ATOMS    COLORGROUP SYSTEM
2 22 23
@<TRIPOS>COMMENT
> <Gold.Version>
2022.3.0

> <Gold.Id.Protein>
unknown|4v3u_clean|pdb

> <Gold.Protein.RotatedTorsions>
[ 6612 6571 6572 6573 ] final  -52.34 input  122.18 | X-H torsion
[ 6698 6659 6660 6661 ] final  -33.36 input  126.07 | X-H torsion
[ 8064 8023 8024 8025 ] final  -32.48 input   40.84 | X-H torsion
[ 8135 8102 8103 8104 ] final -104.88 input  100.47 | X-H torsion
[ 8201 8164 8165 8166 ] final -101.11 input   73.50 | X-H torsion
[ 8278 8240 8241 8242 ] final  102.10 input   88.79 | X-H torsion
[ 9578 9542 9541 9539 ] final   30.23 input   60.02 | X-H torsion
[ 8331 8311 8312 8313 ] final   97.29 input   92.25 | X-H torsion
[ 7986 7938 7939 7940 ] final -158.76 input   70.73 | X-H torsion
[ 7906 7885 7886 7887 ] final -148.71 input  102.20 | X-H torsion
[ 6850 6802 6803 6804 ] final  155.02 input  120.36 | X-H torsion
[ 10224 10183 10184 10185 ] final   13.37 input   40.62 | X-H torsion
[ 7910 7890 7889 7886 ] final  -86.68 input   60.02 | X-H torsion
[ 27200 6334 6333 6332 ] final  -95.66 input    0.00 | X-H torsion
[ 27202 6498 6497 6496 ] final   55.10 input   -0.00 | X-H torsion
[ 27205 6574 6573 6572 ] final   20.74 input   -0.00 | X-H torsion
[ 27208 7888 7887 7886 ] final   79.17 input    0.00 | X-H torsion
[ 27211 8026 8025 8024 ] final -158.99 input   -0.00 | X-H torsion
[ 27214 8105 8104 8103 ] final  -26.43 input    0.00 | X-H torsion
[ 27217 8167 8166 8165 ] final  -79.91 input    0.00 | X-H torsion
[ 27222 10096 10095 10094 ] final -138.09 input   -0.00 | X-H torsion
[ 27225 10186 10185 10184 ] final  -57.30 input    0.00 | X-H torsion
[ 27228 7941 7940 7939 ] final  -93.52 input    0.00 | X-H torsion
[ 27230 7733 7732 7731 ] final  163.31 input   -0.00 | X-H torsion
[ 27232 7816 7815 7814 ] final    3.74 input   -0.00 | X-H torsion

> <Gold.Protein.ActiveResidues>
 ASP403  THR404  LEU406  ILE407  TYR408  ALA410  LYS411  TRP414  GLN425  TRP426 
 SER427  LYS428  LEU429  GLN430  VAL431  PHE432  ASP433  TYR453  SER462  ALA463 
 ILE464 

> <Gold.Protein.RotatedAtoms>
  241.6547   -6.7477   50.1352 H   0  0  0  0  0  0  0  0  0  0  0  0  # atno 6612 bound_to 6571
  240.5173   -7.4326   47.8795 H   0  0  0  0  0  0  0  0  0  0  0  0  # atno 6698 bound_to 6659
  241.3292   -5.0978   45.2370 H   0  0  0  0  0  0  0  0  0  0  0  0  # atno 6850 bound_to 6802
  239.7772   -6.5473   37.9324 H   0  0  0  0  0  0  0  0  0  0  0  0  # atno 7906 bound_to 7885
  238.6991   -8.7440   36.2728 H   0  0  0  0  0  0  0  0  0  0  0  0  # atno 7910 bound_to 7890
  241.9873   -9.2672   37.7965 H   0  0  0  0  0  0  0  0  0  0  0  0  # atno 7986 bound_to 7938
  245.4211   -9.2236   39.8370 H   0  0  0  0  0  0  0  0  0  0  0  0  # atno 8064 bound_to 8023
  247.0128   -8.3315   41.6821 H   0  0  0  0  0  0  0  0  0  0  0  0  # atno 8135 bound_to 8102
  248.5051   -7.6525   44.5296 H   0  0  0  0  0  0  0  0  0  0  0  0  # atno 8201 bound_to 8164
  249.8165   -5.8565   47.1303 H   0  0  0  0  0  0  0  0  0  0  0  0  # atno 8278 bound_to 8240
  250.1855   -8.1303   50.9625 H   0  0  0  0  0  0  0  0  0  0  0  0  # atno 8331 bound_to 8311
  251.8242  -11.7746   40.9221 H   0  0  0  0  0  0  0  0  0  0  0  0  # atno 9578 bound_to 9542
  249.8595   -4.4002   44.2892 H   0  0  0  0  0  0  0  0  0  0  0  0  # atno 10224 bound_to 10183
  241.6128   -9.0833   51.8261 LP  0  0  0  0  0  0  0  0  0  0  0  0  # atno 27200 bound_to 6334
  242.8367  -10.1276   51.1845 LP  0  0  0  0  0  0  0  0  0  0  0  0  # atno 27201 bound_to 6334
  242.2430   -4.6836   49.7891 LP  0  0  0  0  0  0  0  0  0  0  0  0  # atno 27202 bound_to 6498
  241.0635   -5.4525   48.7803 LP  0  0  0  0  0  0  0  0  0  0  0  0  # atno 27203 bound_to 6498
  242.0439   -8.3996   50.5634 LP  0  0  0  0  0  0  0  0  0  0  0  0  # atno 27204 bound_to 6571
  241.9334   -6.8261   46.1532 LP  0  0  0  0  0  0  0  0  0  0  0  0  # atno 27205 bound_to 6574
  240.2697   -6.3501   46.2269 LP  0  0  0  0  0  0  0  0  0  0  0  0  # atno 27206 bound_to 6574
  239.7000   -8.8151   48.5739 LP  0  0  0  0  0  0  0  0  0  0  0  0  # atno 27207 bound_to 6659
  241.7495  -10.9955   39.2485 LP  0  0  0  0  0  0  0  0  0  0  0  0  # atno 27208 bound_to 7888
  242.4459   -9.8648   40.3605 LP  0  0  0  0  0  0  0  0  0  0  0  0  # atno 27209 bound_to 7888
  244.2586   -7.9620   39.4914 LP  0  0  0  0  0  0  0  0  0  0  0  0  # atno 27210 bound_to 8023
  246.3471   -8.9054   43.5984 LP  0  0  0  0  0  0  0  0  0  0  0  0  # atno 27211 bound_to 8026
  245.0382   -9.0346   42.4714 LP  0  0  0  0  0  0  0  0  0  0  0  0  # atno 27212 bound_to 8026
  248.2860   -7.1666   41.4130 LP  0  0  0  0  0  0  0  0  0  0  0  0  # atno 27213 bound_to 8102
  249.6256   -6.1199   43.4825 LP  0  0  0  0  0  0  0  0  0  0  0  0  # atno 27214 bound_to 8105
  248.5072   -5.6797   44.7296 LP  0  0  0  0  0  0  0  0  0  0  0  0  # atno 27215 bound_to 8105
  247.7250   -9.0018   45.3200 LP  0  0  0  0  0  0  0  0  0  0  0  0  # atno 27216 bound_to 8164
  248.1424   -8.8032   48.8616 LP  0  0  0  0  0  0  0  0  0  0  0  0  # atno 27217 bound_to 8167
  249.4211   -9.3471   47.8276 LP  0  0  0  0  0  0  0  0  0  0  0  0  # atno 27218 bound_to 8167
  248.9056   -7.2127   47.7467 LP  0  0  0  0  0  0  0  0  0  0  0  0  # atno 27219 bound_to 8240
  251.9522  -11.0421   39.4749 LP  0  0  0  0  0  0  0  0  0  0  0  0  # atno 27220 bound_to 9542
  251.0680  -10.3571   40.6647 LP  0  0  0  0  0  0  0  0  0  0  0  0  # atno 27221 bound_to 9542
  249.0866   -6.5534   40.8097 LP  0  0  0  0  0  0  0  0  0  0  0  0  # atno 27222 bound_to 10096
  249.9935   -7.0789   39.4308 LP  0  0  0  0  0  0  0  0  0  0  0  0  # atno 27223 bound_to 10096
  250.2388   -6.4584   50.4587 LP  0  0  0  0  0  0  0  0  0  0  0  0  # atno 27224 bound_to 8311
  249.2639   -4.7134   46.6648 LP  0  0  0  0  0  0  0  0  0  0  0  0  # atno 27225 bound_to 10186
  250.9892   -4.5969   46.7642 LP  0  0  0  0  0  0  0  0  0  0  0  0  # atno 27226 bound_to 10186
  242.6514   -7.6622   37.9782 LP  0  0  0  0  0  0  0  0  0  0  0  0  # atno 27227 bound_to 7938
  246.6353   -7.6016   37.6559 LP  0  0  0  0  0  0  0  0  0  0  0  0  # atno 27228 bound_to 7941
  245.2890   -6.5128   37.7011 LP  0  0  0  0  0  0  0  0  0  0  0  0  # atno 27229 bound_to 7941
  242.8312   -6.2699   37.2257 LP  0  0  0  0  0  0  0  0  0  0  0  0  # atno 27230 bound_to 7733
  243.5322   -7.0143   35.8277 LP  0  0  0  0  0  0  0  0  0  0  0  0  # atno 27231 bound_to 7733
  241.4964   -5.1818   39.8257 LP  0  0  0  0  0  0  0  0  0  0  0  0  # atno 27232 bound_to 7816
  241.3250   -6.8980   39.9849 LP  0  0  0  0  0  0  0  0  0  0  0  0  # atno 27233 bound_to 7816
  241.1190   -7.1637   36.9991 LP  0  0  0  0  0  0  0  0  0  0  0  0  # atno 27234 bound_to 7885

> <Gold.Score>
     Fitness  S(hb_ext) S(vdw_ext)  S(hb_int)    S(int)      intcor
     33.96       5.08      21.12       0.00      -0.16      -0.78

> <Gold.Goldscore.Fitness>
33.9599

> <Gold.Goldscore.Internal.Vdw>
-0.3987

> <Gold.Goldscore.Internal.Torsion>
-0.5435

> <Gold.Goldscore.External.Vdw>
21.1226

> <Gold.Goldscore.Internal.HBond>
0.0000

> <Gold.Goldscore.External.HBond>
5.0766

> <Gold.Goldscore.Internal.Correction>
-0.7819

> <Gold.Goldscore.Hbonds>
donor molecule, donor type, donor heavy atom, donor atom, acceptor molecule, acceptor atom, score
      P1  H  8023  8064       L1    11  0.03
      L1  H     8    22       P1  8110  0.84

> <Gold.Goldscore.Internal.Vdw.Weighted>
-0.3987

> <Gold.Goldscore.Internal.Torsion.Weighted>
-0.5435

> <Gold.Goldscore.External.Vdw.Weighted>
29.0436

> <Gold.Goldscore.Internal.HBond.Weighted>
0.0000

> <Gold.Goldscore.External.HBond.Weighted>
5.0766

> <Gold.Goldscore.Internal.Correction.Weighted>
-0.7819

> <Gold.Rescore>
     Score     S(PLP)   S(hbond)     S(cho)   S(metal)  DE(clash)   DE(tors)     intcor
     31.87     -29.14       1.32       0.00       0.00       0.00       0.61       ----

> <Gold.PLP.Fitness>
31.8731

> <Gold.PLP.PLP>
-29.1394

> <Gold.PLP.part.hbond>
-2.9717

> <Gold.PLP.part.metal>
0.0000

> <Gold.PLP.part.buried>
1.3528

> <Gold.PLP.part.nonpolar>
-28.5313

> <Gold.PLP.part.repulsive>
0.9777

> <Gold.PLP.ligand.clash>
0.0000

> <Gold.PLP.ligand.torsion>
0.6087

> <Gold.PLP.Chemscore.Hbond>
1.3170

> <Gold.PLP.Chemscore.CHOScore>
0.0000

> <Gold.PLP.Chemscore.Metal>
0.0000

> <Gold.Chemscore.Hbonds>
donor molecule, donor type, donor heavy atom, donor atom, acceptor molecule, acceptor atom, score
      L1  H     8    22       P1  8110  0.55
      P1  H  8023  8064       L1    11  0.01

> <Gold.PLP.Chemscore.Internal.Correction>
   9.000000E+99

