#       Name:                CT1002167954
#       Creating user name   hitesit
#       Creation time:       Sun Apr 16 20:33:11 2023


#       File generated by GOLD software.
#

@<TRIPOS>MOLECULE
CT1002167954|ligand_prepared|mol2|1|dock8
    29    30     1
SMALL
NO_CHARGES


@<TRIPOS>ATOM
      1 C1         245.2526 -12.7281  44.0350 C.3            1 RES1               0.0000
      2 C2         245.4476 -12.3241  42.5594 C.ar           1 RES1               0.0000
      3 C3         246.5112 -13.4895  44.4407 C.2            1 RES1               0.0000
      4 C4         245.0339 -11.4316  44.8070 C.2            1 RES1               0.0000
      5 C5         244.0274 -13.6403  44.2765 C.3            1 RES1               0.0000
      6 C6         246.3614 -11.3342  42.2105 C.ar           1 RES1               0.0000
      7 C7         244.7242 -12.9332  41.5374 C.ar           1 RES1               0.0000
      8 N8         247.3993 -12.8529  45.2567 N.am           1 RES1               0.0000
      9 O9         246.7399 -14.6166  44.0192 O.2            1 RES1               0.0000
     10 N10        245.9844 -11.0608  45.7218 N.am           1 RES1               0.0000
     11 O11        244.0553 -10.7192  44.6193 O.2            1 RES1               0.0000
     12 C12        243.7427 -13.9085  45.7459 C.3            1 RES1               0.0000
     13 C13        246.5475 -10.9683  40.8877 C.ar           1 RES1               0.0000
     14 C14        244.9117 -12.5657  40.2152 C.ar           1 RES1               0.0000
     15 C15        247.1723 -11.6970  45.9595 C.2            1 RES1               0.0000
     16 C16        245.8232 -11.5840  39.8892 C.ar           1 RES1               0.0000
     17 O17        248.0010 -11.2722  46.7594 O.2            1 RES1               0.0000
     18 H18        243.1440 -13.1718  43.8254 H              1 RES1               0.0000
     19 H19        244.1949 -14.5983  43.7688 H              1 RES1               0.0000
     20 H20        246.9386 -10.8368  42.9828 H              1 RES1               0.0000
     21 H21        244.0009 -13.7072  41.7705 H              1 RES1               0.0000
     22 H22        248.3172 -13.2753  45.3532 H              1 RES1               0.0000
     23 H23        245.7882 -10.2341  46.2770 H              1 RES1               0.0000
     24 H24        242.8737 -14.5532  45.8590 H              1 RES1               0.0000
     25 H25        244.5912 -14.3971  46.2203 H              1 RES1               0.0000
     26 H26        243.5465 -12.9791  46.2766 H              1 RES1               0.0000
     27 H27        247.2650 -10.1942  40.6365 H              1 RES1               0.0000
     28 H28        244.3391 -13.0525  39.4327 H              1 RES1               0.0000
     29 H29        245.9694 -11.2975  38.8530 H              1 RES1               0.0000
@<TRIPOS>BOND
    1    1    2 1     
    2    1    3 1     
    3    1    4 1     
    4    1    5 1     
    5    2    6 ar    
    6    2    7 ar    
    7    3    8 1     
    8    3    9 2     
    9    4   10 1     
   10    4   11 2     
   11    5   12 1     
   12    5   18 1     
   13    5   19 1     
   14    6   13 ar    
   15    6   20 1     
   16    7   14 ar    
   17    7   21 1     
   18    8   15 1     
   19    8   22 1     
   20   10   15 1     
   21   10   23 1     
   22   12   24 1     
   23   12   25 1     
   24   12   26 1     
   25   13   16 ar    
   26   13   27 1     
   27   14   16 ar    
   28   14   28 1     
   29   15   17 2     
   30   16   29 1     
@<TRIPOS>SUBSTRUCTURE
      1 RES1           1
@<TRIPOS>SET
DONOR_HYDROGENS      STATIC     ATOMS    <user>   **** ""
2 22 23
ATOM$RED        STATIC     ATOMS    COLORGROUP SYSTEM
2 22 23
@<TRIPOS>COMMENT
> <Gold.Version>
2022.3.0

> <Gold.Id.Protein>
unknown|4v3u_clean|pdb

> <Gold.Protein.RotatedTorsions>
[ 6612 6571 6572 6573 ] final  163.52 input  122.18 | X-H torsion
[ 6698 6659 6660 6661 ] final  -88.60 input  126.07 | X-H torsion
[ 8064 8023 8024 8025 ] final  104.47 input   40.84 | X-H torsion
[ 8135 8102 8103 8104 ] final  -47.00 input  100.47 | X-H torsion
[ 8201 8164 8165 8166 ] final   63.90 input   73.50 | X-H torsion
[ 8278 8240 8241 8242 ] final  118.28 input   88.79 | X-H torsion
[ 9578 9542 9541 9539 ] final  172.34 input   60.02 | X-H torsion
[ 8331 8311 8312 8313 ] final  -61.44 input   92.25 | X-H torsion
[ 7986 7938 7939 7940 ] final  179.80 input   70.73 | X-H torsion
[ 7906 7885 7886 7887 ] final  102.59 input  102.20 | X-H torsion
[ 6850 6802 6803 6804 ] final  116.88 input  120.36 | X-H torsion
[ 10224 10183 10184 10185 ] final   62.23 input   40.62 | X-H torsion
[ 7910 7890 7889 7886 ] final  142.60 input   60.02 | X-H torsion
[ 27200 6334 6333 6332 ] final  -21.77 input    0.00 | X-H torsion
[ 27202 6498 6497 6496 ] final  -55.93 input   -0.00 | X-H torsion
[ 27205 6574 6573 6572 ] final   97.30 input   -0.00 | X-H torsion
[ 27208 7888 7887 7886 ] final  -82.17 input    0.00 | X-H torsion
[ 27211 8026 8025 8024 ] final  153.40 input   -0.00 | X-H torsion
[ 27214 8105 8104 8103 ] final -114.69 input    0.00 | X-H torsion
[ 27217 8167 8166 8165 ] final -155.59 input    0.00 | X-H torsion
[ 27222 10096 10095 10094 ] final  131.49 input   -0.00 | X-H torsion
[ 27225 10186 10185 10184 ] final  117.85 input    0.00 | X-H torsion
[ 27228 7941 7940 7939 ] final  -75.92 input    0.00 | X-H torsion
[ 27230 7733 7732 7731 ] final -113.20 input   -0.00 | X-H torsion
[ 27232 7816 7815 7814 ] final -126.72 input   -0.00 | X-H torsion

> <Gold.Protein.ActiveResidues>
 ASP403  THR404  LEU406  ILE407  TYR408  ALA410  LYS411  TRP414  GLN425  TRP426 
 SER427  LYS428  LEU429  GLN430  VAL431  PHE432  ASP433  TYR453  SER462  ALA463 
 ILE464 

> <Gold.Protein.RotatedAtoms>
  242.5194   -8.1445   50.5449 H   0  0  0  0  0  0  0  0  0  0  0  0  # atno 6612 bound_to 6571
  240.5252   -8.1356   47.4509 H   0  0  0  0  0  0  0  0  0  0  0  0  # atno 6698 bound_to 6659
  240.7792   -5.1478   45.4025 H   0  0  0  0  0  0  0  0  0  0  0  0  # atno 6850 bound_to 6802
  240.1374   -7.2988   36.7648 H   0  0  0  0  0  0  0  0  0  0  0  0  # atno 7906 bound_to 7885
  239.2747  -10.3397   36.1274 H   0  0  0  0  0  0  0  0  0  0  0  0  # atno 7910 bound_to 7890
  242.0304   -9.1831   37.4822 H   0  0  0  0  0  0  0  0  0  0  0  0  # atno 7986 bound_to 7938
  244.0945   -8.2576   40.0381 H   0  0  0  0  0  0  0  0  0  0  0  0  # atno 8064 bound_to 8023
  246.9780   -7.5806   42.0868 H   0  0  0  0  0  0  0  0  0  0  0  0  # atno 8135 bound_to 8102
  247.9284   -9.0542   45.4113 H   0  0  0  0  0  0  0  0  0  0  0  0  # atno 8201 bound_to 8164
  249.9230   -6.0347   46.9946 H   0  0  0  0  0  0  0  0  0  0  0  0  # atno 8278 bound_to 8240
  250.5401   -6.4770   50.5733 H   0  0  0  0  0  0  0  0  0  0  0  0  # atno 8331 bound_to 8311
  251.1414  -10.2532   40.3276 H   0  0  0  0  0  0  0  0  0  0  0  0  # atno 9578 bound_to 9542
  249.1297   -4.3945   44.1583 H   0  0  0  0  0  0  0  0  0  0  0  0  # atno 10224 bound_to 10183
  242.6257   -9.0817   52.0665 LP  0  0  0  0  0  0  0  0  0  0  0  0  # atno 27200 bound_to 6334
  241.8238  -10.1292   50.9441 LP  0  0  0  0  0  0  0  0  0  0  0  0  # atno 27201 bound_to 6334
  240.8498   -4.8860   49.5518 LP  0  0  0  0  0  0  0  0  0  0  0  0  # atno 27202 bound_to 6498
  242.4567   -5.2501   49.0176 LP  0  0  0  0  0  0  0  0  0  0  0  0  # atno 27203 bound_to 6498
  241.2077   -7.0489   50.1673 LP  0  0  0  0  0  0  0  0  0  0  0  0  # atno 27204 bound_to 6571
  241.0865   -7.2957   45.6910 LP  0  0  0  0  0  0  0  0  0  0  0  0  # atno 27205 bound_to 6574
  241.1166   -5.8804   46.6891 LP  0  0  0  0  0  0  0  0  0  0  0  0  # atno 27206 bound_to 6574
  239.6924   -8.1331   48.9896 LP  0  0  0  0  0  0  0  0  0  0  0  0  # atno 27207 bound_to 6659
  242.1778   -9.8502   40.4426 LP  0  0  0  0  0  0  0  0  0  0  0  0  # atno 27208 bound_to 7888
  242.0176  -11.0102   39.1664 LP  0  0  0  0  0  0  0  0  0  0  0  0  # atno 27209 bound_to 7888
  245.5442   -8.8982   39.2964 LP  0  0  0  0  0  0  0  0  0  0  0  0  # atno 27210 bound_to 8023
  246.3863   -9.4668   43.1835 LP  0  0  0  0  0  0  0  0  0  0  0  0  # atno 27211 bound_to 8026
  244.9990   -8.4732   42.8862 LP  0  0  0  0  0  0  0  0  0  0  0  0  # atno 27212 bound_to 8026
  248.3201   -7.9025   41.0164 LP  0  0  0  0  0  0  0  0  0  0  0  0  # atno 27213 bound_to 8102
  249.6923   -6.0524   44.6848 LP  0  0  0  0  0  0  0  0  0  0  0  0  # atno 27214 bound_to 8105
  248.4405   -5.7472   43.5273 LP  0  0  0  0  0  0  0  0  0  0  0  0  # atno 27215 bound_to 8105
  248.2880   -7.6335   44.4592 LP  0  0  0  0  0  0  0  0  0  0  0  0  # atno 27216 bound_to 8164
  249.1896   -8.7267   49.0245 LP  0  0  0  0  0  0  0  0  0  0  0  0  # atno 27217 bound_to 8167
  248.3739   -9.4236   47.6647 LP  0  0  0  0  0  0  0  0  0  0  0  0  # atno 27218 bound_to 8167
  248.8011   -7.0378   47.8799 LP  0  0  0  0  0  0  0  0  0  0  0  0  # atno 27219 bound_to 8240
  251.6165  -11.5791   41.1421 LP  0  0  0  0  0  0  0  0  0  0  0  0  # atno 27220 bound_to 9542
  252.0917  -11.3529   39.5963 LP  0  0  0  0  0  0  0  0  0  0  0  0  # atno 27221 bound_to 9542
  250.2755   -6.7585   40.5740 LP  0  0  0  0  0  0  0  0  0  0  0  0  # atno 27222 bound_to 10096
  248.8047   -6.8739   39.6666 LP  0  0  0  0  0  0  0  0  0  0  0  0  # atno 27223 bound_to 10096
  249.8917   -8.0772   50.8398 LP  0  0  0  0  0  0  0  0  0  0  0  0  # atno 27224 bound_to 8311
  250.9913   -4.6129   46.6928 LP  0  0  0  0  0  0  0  0  0  0  0  0  # atno 27225 bound_to 10186
  249.2619   -4.6974   46.7362 LP  0  0  0  0  0  0  0  0  0  0  0  0  # atno 27226 bound_to 10186
  242.6092   -7.7446   38.2861 LP  0  0  0  0  0  0  0  0  0  0  0  0  # atno 27227 bound_to 7938
  246.5112   -7.6814   37.4359 LP  0  0  0  0  0  0  0  0  0  0  0  0  # atno 27228 bound_to 7941
  245.4131   -6.4330   37.9212 LP  0  0  0  0  0  0  0  0  0  0  0  0  # atno 27229 bound_to 7941
  242.5433   -7.2172   36.6345 LP  0  0  0  0  0  0  0  0  0  0  0  0  # atno 27230 bound_to 7733
  243.8201   -6.0669   36.4189 LP  0  0  0  0  0  0  0  0  0  0  0  0  # atno 27231 bound_to 7733
  241.9766   -6.6776   39.7534 LP  0  0  0  0  0  0  0  0  0  0  0  0  # atno 27232 bound_to 7816
  240.8448   -5.4022   40.0572 LP  0  0  0  0  0  0  0  0  0  0  0  0  # atno 27233 bound_to 7816
  240.7664   -6.4279   38.1423 LP  0  0  0  0  0  0  0  0  0  0  0  0  # atno 27234 bound_to 7885

> <Gold.Score>
     Fitness  S(hb_ext) S(vdw_ext)  S(hb_int)    S(int)      intcor
     26.93       0.26      19.40       0.00      -0.00      -0.75

> <Gold.Goldscore.Fitness>
26.9284

> <Gold.Goldscore.Internal.Vdw>
-0.3240

> <Gold.Goldscore.Internal.Torsion>
-0.4348

> <Gold.Goldscore.External.Vdw>
19.4014

> <Gold.Goldscore.Internal.HBond>
0.0000

> <Gold.Goldscore.External.HBond>
0.2555

> <Gold.Goldscore.Internal.Correction>
-0.7548

> <Gold.Goldscore.Hbonds>
donor molecule, donor type, donor heavy atom, donor atom, acceptor molecule, acceptor atom, score
      P1  H  8164  8201       L1    17  0.13

> <Gold.Goldscore.Internal.Vdw.Weighted>
-0.3240

> <Gold.Goldscore.Internal.Torsion.Weighted>
-0.4348

> <Gold.Goldscore.External.Vdw.Weighted>
26.6770

> <Gold.Goldscore.Internal.HBond.Weighted>
0.0000

> <Gold.Goldscore.External.HBond.Weighted>
0.2555

> <Gold.Goldscore.Internal.Correction.Weighted>
-0.7548

> <Gold.Rescore>
     Score     S(PLP)   S(hbond)     S(cho)   S(metal)  DE(clash)   DE(tors)     intcor
     26.25     -23.29       1.00       0.00       0.00       0.00       0.02       ----

> <Gold.PLP.Fitness>
26.2505

> <Gold.PLP.PLP>
-23.2896

> <Gold.PLP.part.hbond>
-1.0000

> <Gold.PLP.part.metal>
0.0000

> <Gold.PLP.part.buried>
-2.2353

> <Gold.PLP.part.nonpolar>
-22.4857

> <Gold.PLP.part.repulsive>
1.7193

> <Gold.PLP.ligand.clash>
0.0000

> <Gold.PLP.ligand.torsion>
0.0196

> <Gold.PLP.Chemscore.Hbond>
1.0000

> <Gold.PLP.Chemscore.CHOScore>
0.0000

> <Gold.PLP.Chemscore.Metal>
0.0000

> <Gold.Chemscore.Hbonds>
donor molecule, donor type, donor heavy atom, donor atom, acceptor molecule, acceptor atom, score
      P1  H  6810  6861       L1    11  0.06
      P1  H  8109  8141       L1    17  0.01

> <Gold.PLP.Chemscore.Internal.Correction>
   9.000000E+99

