#       Name:                CT1002167954
#       Creating user name   hitesit
#       Creation time:       Sun Apr 16 20:33:08 2023


#       File generated by GOLD software.
#

@<TRIPOS>MOLECULE
CT1002167954|ligand_prepared|mol2|1|dock1
    29    30     1
SMALL
NO_CHARGES


@<TRIPOS>ATOM
      1 C1         247.7514 -12.2299  39.2773 C.3            1 RES1               0.0000
      2 C2         248.3616 -11.1257  38.3901 C.ar           1 RES1               0.0000
      3 C3         248.6455 -12.3324  40.5095 C.2            1 RES1               0.0000
      4 C4         246.3225 -11.7928  39.5802 C.2            1 RES1               0.0000
      5 C5         247.6925 -13.6172  38.5964 C.3            1 RES1               0.0000
      6 C6         248.0905  -9.7841  38.6415 C.ar           1 RES1               0.0000
      7 C7         249.1982 -11.4325  37.3202 C.ar           1 RES1               0.0000
      8 N8         248.1663 -11.8264  41.6818 N.am           1 RES1               0.0000
      9 O9         249.7698 -12.8142  40.4449 O.2            1 RES1               0.0000
     10 N10        246.0044 -11.4926  40.8788 N.am           1 RES1               0.0000
     11 O11        245.4735 -11.6896  38.7033 O.2            1 RES1               0.0000
     12 C12        246.8407 -14.6312  39.3436 C.3            1 RES1               0.0000
     13 C13        248.6381  -8.7851  37.8538 C.ar           1 RES1               0.0000
     14 C14        249.7446 -10.4320  36.5335 C.ar           1 RES1               0.0000
     15 C15        246.8695 -11.4600  41.9384 C.2            1 RES1               0.0000
     16 C16        249.4658  -9.1083  36.7997 C.ar           1 RES1               0.0000
     17 O17        246.5199 -11.1271  43.0672 O.2            1 RES1               0.0000
     18 H18        247.2901 -13.4963  37.5831 H              1 RES1               0.0000
     19 H19        248.7127 -14.0104  38.5074 H              1 RES1               0.0000
     20 H20        247.4394  -9.5107  39.4652 H              1 RES1               0.0000
     21 H21        249.4305 -12.4671  37.0915 H              1 RES1               0.0000
     22 H22        248.8338 -11.7095  42.4375 H              1 RES1               0.0000
     23 H23        245.0327 -11.2733  41.0737 H              1 RES1               0.0000
     24 H24        246.8334 -15.5868  38.8234 H              1 RES1               0.0000
     25 H25        247.2273 -14.7948  40.3474 H              1 RES1               0.0000
     26 H26        245.8131 -14.2838  39.4286 H              1 RES1               0.0000
     27 H27        248.4145  -7.7450  38.0666 H              1 RES1               0.0000
     28 H28        250.3949 -10.6909  35.7046 H              1 RES1               0.0000
     29 H29        249.8949  -8.3255  36.1830 H              1 RES1               0.0000
@<TRIPOS>BOND
    1    1    2 1     
    2    1    3 1     
    3    1    4 1     
    4    1    5 1     
    5    2    6 ar    
    6    2    7 ar    
    7    3    8 1     
    8    3    9 2     
    9    4   10 1     
   10    4   11 2     
   11    5   12 1     
   12    5   18 1     
   13    5   19 1     
   14    6   13 ar    
   15    6   20 1     
   16    7   14 ar    
   17    7   21 1     
   18    8   15 1     
   19    8   22 1     
   20   10   15 1     
   21   10   23 1     
   22   12   24 1     
   23   12   25 1     
   24   12   26 1     
   25   13   16 ar    
   26   13   27 1     
   27   14   16 ar    
   28   14   28 1     
   29   15   17 2     
   30   16   29 1     
@<TRIPOS>SUBSTRUCTURE
      1 RES1           1
@<TRIPOS>SET
DONOR_HYDROGENS      STATIC     ATOMS    <user>   **** ""
2 22 23
ATOM$RED        STATIC     ATOMS    COLORGROUP SYSTEM
2 22 23
@<TRIPOS>COMMENT
> <Gold.Version>
2022.3.0

> <Gold.Id.Protein>
unknown|4v3u_clean|pdb

> <Gold.Protein.RotatedTorsions>
[ 6612 6571 6572 6573 ] final  171.31 input  122.18 | X-H torsion
[ 6698 6659 6660 6661 ] final    8.87 input  126.07 | X-H torsion
[ 8064 8023 8024 8025 ] final  109.02 input   40.84 | X-H torsion
[ 8135 8102 8103 8104 ] final  -67.39 input  100.47 | X-H torsion
[ 8201 8164 8165 8166 ] final   70.44 input   73.50 | X-H torsion
[ 8278 8240 8241 8242 ] final  -41.20 input   88.79 | X-H torsion
[ 9578 9542 9541 9539 ] final -133.25 input   60.02 | X-H torsion
[ 8331 8311 8312 8313 ] final  -63.38 input   92.25 | X-H torsion
[ 7986 7938 7939 7940 ] final  -31.03 input   70.73 | X-H torsion
[ 7906 7885 7886 7887 ] final -172.92 input  102.20 | X-H torsion
[ 6850 6802 6803 6804 ] final -112.80 input  120.36 | X-H torsion
[ 10224 10183 10184 10185 ] final   28.22 input   40.62 | X-H torsion
[ 7910 7890 7889 7886 ] final  133.19 input   60.02 | X-H torsion
[ 27200 6334 6333 6332 ] final   -2.11 input    0.00 | X-H torsion
[ 27202 6498 6497 6496 ] final   82.58 input   -0.00 | X-H torsion
[ 27205 6574 6573 6572 ] final  141.67 input   -0.00 | X-H torsion
[ 27208 7888 7887 7886 ] final -115.10 input    0.00 | X-H torsion
[ 27211 8026 8025 8024 ] final   46.19 input   -0.00 | X-H torsion
[ 27214 8105 8104 8103 ] final  113.10 input    0.00 | X-H torsion
[ 27217 8167 8166 8165 ] final  -82.33 input    0.00 | X-H torsion
[ 27222 10096 10095 10094 ] final   69.60 input   -0.00 | X-H torsion
[ 27225 10186 10185 10184 ] final   87.76 input    0.00 | X-H torsion
[ 27228 7941 7940 7939 ] final  162.33 input    0.00 | X-H torsion
[ 27230 7733 7732 7731 ] final  -32.15 input   -0.00 | X-H torsion
[ 27232 7816 7815 7814 ] final   53.44 input   -0.00 | X-H torsion

> <Gold.Protein.ActiveResidues>
 ASP403  THR404  LEU406  ILE407  TYR408  ALA410  LYS411  TRP414  GLN425  TRP426 
 SER427  LYS428  LEU429  GLN430  VAL431  PHE432  ASP433  TYR453  SER462  ALA463 
 ILE464 

> <Gold.Protein.RotatedAtoms>
  242.5919   -8.0485   50.5332 H   0  0  0  0  0  0  0  0  0  0  0  0  # atno 6612 bound_to 6571
  240.2531   -7.2850   48.4433 H   0  0  0  0  0  0  0  0  0  0  0  0  # atno 6698 bound_to 6659
  241.6884   -3.9186   44.9262 H   0  0  0  0  0  0  0  0  0  0  0  0  # atno 6850 bound_to 6802
  239.6051   -6.7215   37.6549 H   0  0  0  0  0  0  0  0  0  0  0  0  # atno 7906 bound_to 7885
  239.4282  -10.3396   36.1199 H   0  0  0  0  0  0  0  0  0  0  0  0  # atno 7910 bound_to 7890
  242.4861   -8.0217   38.6382 H   0  0  0  0  0  0  0  0  0  0  0  0  # atno 7986 bound_to 7938
  244.0917   -8.2106   39.9855 H   0  0  0  0  0  0  0  0  0  0  0  0  # atno 8064 bound_to 8023
  246.9042   -7.8684   41.9906 H   0  0  0  0  0  0  0  0  0  0  0  0  # atno 8135 bound_to 8102
  247.8327   -9.0426   45.3818 H   0  0  0  0  0  0  0  0  0  0  0  0  # atno 8201 bound_to 8164
  248.7203   -6.7660   48.0084 H   0  0  0  0  0  0  0  0  0  0  0  0  # atno 8278 bound_to 8240
  250.5139   -6.4689   50.5614 H   0  0  0  0  0  0  0  0  0  0  0  0  # atno 8331 bound_to 8311
  251.5614  -10.4846   39.6189 H   0  0  0  0  0  0  0  0  0  0  0  0  # atno 9578 bound_to 9542
  249.6327   -4.4473   44.2964 H   0  0  0  0  0  0  0  0  0  0  0  0  # atno 10224 bound_to 10183
  242.8556   -9.2442   51.9760 LP  0  0  0  0  0  0  0  0  0  0  0  0  # atno 27200 bound_to 6334
  241.5939   -9.9667   51.0346 LP  0  0  0  0  0  0  0  0  0  0  0  0  # atno 27201 bound_to 6334
  242.4691   -4.8853   49.5106 LP  0  0  0  0  0  0  0  0  0  0  0  0  # atno 27202 bound_to 6498
  240.8374   -5.2508   49.0588 LP  0  0  0  0  0  0  0  0  0  0  0  0  # atno 27203 bound_to 6498
  241.1376   -7.1417   50.1786 LP  0  0  0  0  0  0  0  0  0  0  0  0  # atno 27204 bound_to 6571
  240.4902   -7.0411   45.7764 LP  0  0  0  0  0  0  0  0  0  0  0  0  # atno 27205 bound_to 6574
  241.7129   -6.1351   46.6037 LP  0  0  0  0  0  0  0  0  0  0  0  0  # atno 27206 bound_to 6574
  239.9562   -8.9583   48.0269 LP  0  0  0  0  0  0  0  0  0  0  0  0  # atno 27207 bound_to 6659
  242.6276   -9.9165   40.2576 LP  0  0  0  0  0  0  0  0  0  0  0  0  # atno 27208 bound_to 7888
  241.5679  -10.9439   39.3514 LP  0  0  0  0  0  0  0  0  0  0  0  0  # atno 27209 bound_to 7888
  245.5469   -8.9438   39.3474 LP  0  0  0  0  0  0  0  0  0  0  0  0  # atno 27210 bound_to 8023
  245.2458   -9.3397   42.3917 LP  0  0  0  0  0  0  0  0  0  0  0  0  # atno 27211 bound_to 8026
  246.1395   -8.6003   43.6781 LP  0  0  0  0  0  0  0  0  0  0  0  0  # atno 27212 bound_to 8026
  248.3925   -7.6205   41.1107 LP  0  0  0  0  0  0  0  0  0  0  0  0  # atno 27213 bound_to 8102
  248.2456   -5.6376   44.1923 LP  0  0  0  0  0  0  0  0  0  0  0  0  # atno 27214 bound_to 8105
  249.8873   -6.1620   44.0197 LP  0  0  0  0  0  0  0  0  0  0  0  0  # atno 27215 bound_to 8105
  248.3815   -7.6448   44.4880 LP  0  0  0  0  0  0  0  0  0  0  0  0  # atno 27216 bound_to 8164
  248.1676   -8.7912   48.8851 LP  0  0  0  0  0  0  0  0  0  0  0  0  # atno 27217 bound_to 8167
  249.3959   -9.3591   47.8041 LP  0  0  0  0  0  0  0  0  0  0  0  0  # atno 27218 bound_to 8167
  249.9809   -6.3205   46.8854 LP  0  0  0  0  0  0  0  0  0  0  0  0  # atno 27219 bound_to 8240
  251.1671  -10.8436   41.1561 LP  0  0  0  0  0  0  0  0  0  0  0  0  # atno 27220 bound_to 9542
  252.1178  -11.8553   40.2963 LP  0  0  0  0  0  0  0  0  0  0  0  0  # atno 27221 bound_to 9542
  250.2818   -7.0211   39.7229 LP  0  0  0  0  0  0  0  0  0  0  0  0  # atno 27222 bound_to 10096
  248.7984   -6.6112   40.5176 LP  0  0  0  0  0  0  0  0  0  0  0  0  # atno 27223 bound_to 10096
  249.9173   -8.0851   50.8514 LP  0  0  0  0  0  0  0  0  0  0  0  0  # atno 27224 bound_to 8311
  250.8687   -4.7141   46.2721 LP  0  0  0  0  0  0  0  0  0  0  0  0  # atno 27225 bound_to 10186
  249.3844   -4.5962   47.1569 LP  0  0  0  0  0  0  0  0  0  0  0  0  # atno 27226 bound_to 10186
  242.1627   -8.8826   37.1534 LP  0  0  0  0  0  0  0  0  0  0  0  0  # atno 27227 bound_to 7938
  246.0946   -6.5863   38.3932 LP  0  0  0  0  0  0  0  0  0  0  0  0  # atno 27228 bound_to 7941
  245.8298   -7.5280   36.9639 LP  0  0  0  0  0  0  0  0  0  0  0  0  # atno 27229 bound_to 7941
  243.3589   -7.1664   35.8606 LP  0  0  0  0  0  0  0  0  0  0  0  0  # atno 27230 bound_to 7733
  243.0045   -6.1177   37.1928 LP  0  0  0  0  0  0  0  0  0  0  0  0  # atno 27231 bound_to 7733
  240.8432   -5.4038   40.0579 LP  0  0  0  0  0  0  0  0  0  0  0  0  # atno 27232 bound_to 7816
  241.9782   -6.6761   39.7527 LP  0  0  0  0  0  0  0  0  0  0  0  0  # atno 27233 bound_to 7816
  241.2875   -6.9931   37.2708 LP  0  0  0  0  0  0  0  0  0  0  0  0  # atno 27234 bound_to 7885

> <Gold.Score>
     Fitness  S(hb_ext) S(vdw_ext)  S(hb_int)    S(int)      intcor
     34.10       6.00      20.55       0.00      -0.16      -0.78

> <Gold.Goldscore.Fitness>
34.1019

> <Gold.Goldscore.Internal.Vdw>
-0.3500

> <Gold.Goldscore.Internal.Torsion>
-0.5881

> <Gold.Goldscore.External.Vdw>
20.5513

> <Gold.Goldscore.Internal.HBond>
0.0000

> <Gold.Goldscore.External.HBond>
6.0000

> <Gold.Goldscore.Internal.Correction>
-0.7819

> <Gold.Goldscore.Hbonds>
donor molecule, donor type, donor heavy atom, donor atom, acceptor molecule, acceptor atom, score
      L1  H     8    22       P1  8110  1.00

> <Gold.Goldscore.Internal.Vdw.Weighted>
-0.3500

> <Gold.Goldscore.Internal.Torsion.Weighted>
-0.5881

> <Gold.Goldscore.External.Vdw.Weighted>
28.2580

> <Gold.Goldscore.Internal.HBond.Weighted>
0.0000

> <Gold.Goldscore.External.HBond.Weighted>
6.0000

> <Gold.Goldscore.Internal.Correction.Weighted>
-0.7819

> <Gold.Rescore>
     Score     S(PLP)   S(hbond)     S(cho)   S(metal)  DE(clash)   DE(tors)     intcor
     30.98     -29.07       1.00       0.00       0.00       0.00       0.55       ----

> <Gold.PLP.Fitness>
30.9755

> <Gold.PLP.PLP>
-29.0700

> <Gold.PLP.part.hbond>
-1.9598

> <Gold.PLP.part.metal>
0.0000

> <Gold.PLP.part.buried>
-3.2387

> <Gold.PLP.part.nonpolar>
-24.9487

> <Gold.PLP.part.repulsive>
0.3621

> <Gold.PLP.ligand.clash>
0.0000

> <Gold.PLP.ligand.torsion>
0.5473

> <Gold.PLP.Chemscore.Hbond>
1.0000

> <Gold.PLP.Chemscore.CHOScore>
0.0000

> <Gold.PLP.Chemscore.Metal>
0.0000

> <Gold.Chemscore.Hbonds>
donor molecule, donor type, donor heavy atom, donor atom, acceptor molecule, acceptor atom, score
      L1  H     8    22       P1  8110  0.59

> <Gold.PLP.Chemscore.Internal.Correction>
   9.000000E+99

