#       Name:                CT1002167954
#       Creating user name   hitesit
#       Creation time:       Sun Apr 16 20:33:12 2023


#       File generated by GOLD software.
#

@<TRIPOS>MOLECULE
CT1002167954|ligand_prepared|mol2|1|dock10
    29    30     1
SMALL
NO_CHARGES


@<TRIPOS>ATOM
      1 C1         246.9545 -12.9294  43.9446 C.3            1 RES1               0.0000
      2 C2         247.4785 -12.4286  42.5832 C.ar           1 RES1               0.0000
      3 C3         246.5886 -11.6843  44.7471 C.2            1 RES1               0.0000
      4 C4         245.7719 -13.8413  43.6372 C.2            1 RES1               0.0000
      5 C5         247.9909 -13.7464  44.7507 C.3            1 RES1               0.0000
      6 C6         246.8234 -11.4052  41.9047 C.ar           1 RES1               0.0000
      7 C7         248.6152 -12.9773  41.9955 C.ar           1 RES1               0.0000
      8 N8         245.2638 -11.4036  44.9089 N.am           1 RES1               0.0000
      9 O9         247.4495 -10.9385  45.1976 O.2            1 RES1               0.0000
     10 N10        244.5282 -13.4414  44.0511 N.am           1 RES1               0.0000
     11 O11        245.9034 -14.8944  43.0258 O.2            1 RES1               0.0000
     12 C12        247.5733 -14.0193  46.1872 C.3            1 RES1               0.0000
     13 C13        247.2894 -10.9450  40.6843 C.ar           1 RES1               0.0000
     14 C14        249.0794 -12.5157  40.7748 C.ar           1 RES1               0.0000
     15 C15        244.2163 -12.2493  44.6459 C.2            1 RES1               0.0000
     16 C16        248.4178 -11.4995  40.1188 C.ar           1 RES1               0.0000
     17 O17        243.0657 -11.9383  44.9397 O.2            1 RES1               0.0000
     18 H18        248.1571 -14.7046  44.2432 H              1 RES1               0.0000
     19 H19        248.9426 -13.2010  44.7574 H              1 RES1               0.0000
     20 H20        245.9324 -10.9584  42.3330 H              1 RES1               0.0000
     21 H21        249.1512 -13.7784  42.4930 H              1 RES1               0.0000
     22 H22        245.0304 -10.4793  45.2575 H              1 RES1               0.0000
     23 H23        243.7642 -14.0929  43.9020 H              1 RES1               0.0000
     24 H24        248.3355 -14.5954  46.7076 H              1 RES1               0.0000
     25 H25        247.4237 -13.0877  46.7290 H              1 RES1               0.0000
     26 H26        246.6428 -14.5825  46.2179 H              1 RES1               0.0000
     27 H27        246.7643 -10.1460  40.1714 H              1 RES1               0.0000
     28 H28        249.9676 -12.9554  40.3332 H              1 RES1               0.0000
     29 H29        248.7829 -11.1385  39.1630 H              1 RES1               0.0000
@<TRIPOS>BOND
    1    1    2 1     
    2    1    3 1     
    3    1    4 1     
    4    1    5 1     
    5    2    6 ar    
    6    2    7 ar    
    7    3    8 1     
    8    3    9 2     
    9    4   10 1     
   10    4   11 2     
   11    5   12 1     
   12    5   18 1     
   13    5   19 1     
   14    6   13 ar    
   15    6   20 1     
   16    7   14 ar    
   17    7   21 1     
   18    8   15 1     
   19    8   22 1     
   20   10   15 1     
   21   10   23 1     
   22   12   24 1     
   23   12   25 1     
   24   12   26 1     
   25   13   16 ar    
   26   13   27 1     
   27   14   16 ar    
   28   14   28 1     
   29   15   17 2     
   30   16   29 1     
@<TRIPOS>SUBSTRUCTURE
      1 RES1           1
@<TRIPOS>SET
DONOR_HYDROGENS      STATIC     ATOMS    <user>   **** ""
2 22 23
ATOM$RED        STATIC     ATOMS    COLORGROUP SYSTEM
2 22 23
@<TRIPOS>COMMENT
> <Gold.Version>
2022.3.0

> <Gold.Id.Protein>
unknown|4v3u_clean|pdb

> <Gold.Protein.RotatedTorsions>
[ 6612 6571 6572 6573 ] final  140.99 input  122.18 | X-H torsion
[ 6698 6659 6660 6661 ] final -156.56 input  126.07 | X-H torsion
[ 8064 8023 8024 8025 ] final -164.03 input   40.84 | X-H torsion
[ 8135 8102 8103 8104 ] final -104.59 input  100.47 | X-H torsion
[ 8201 8164 8165 8166 ] final  -53.74 input   73.50 | X-H torsion
[ 8278 8240 8241 8242 ] final   46.89 input   88.79 | X-H torsion
[ 9578 9542 9541 9539 ] final  -28.33 input   60.02 | X-H torsion
[ 8331 8311 8312 8313 ] final   14.28 input   92.25 | X-H torsion
[ 7986 7938 7939 7940 ] final  -73.71 input   70.73 | X-H torsion
[ 7906 7885 7886 7887 ] final   49.73 input  102.20 | X-H torsion
[ 6850 6802 6803 6804 ] final  -78.81 input  120.36 | X-H torsion
[ 10224 10183 10184 10185 ] final    2.75 input   40.62 | X-H torsion
[ 7910 7890 7889 7886 ] final  -12.93 input   60.02 | X-H torsion
[ 27200 6334 6333 6332 ] final  154.45 input    0.00 | X-H torsion
[ 27202 6498 6497 6496 ] final -177.42 input   -0.00 | X-H torsion
[ 27205 6574 6573 6572 ] final -101.92 input   -0.00 | X-H torsion
[ 27208 7888 7887 7886 ] final  139.01 input    0.00 | X-H torsion
[ 27211 8026 8025 8024 ] final  -74.99 input   -0.00 | X-H torsion
[ 27214 8105 8104 8103 ] final  -76.86 input    0.00 | X-H torsion
[ 27217 8167 8166 8165 ] final -135.03 input    0.00 | X-H torsion
[ 27222 10096 10095 10094 ] final  -86.11 input   -0.00 | X-H torsion
[ 27225 10186 10185 10184 ] final   14.48 input    0.00 | X-H torsion
[ 27228 7941 7940 7939 ] final   78.93 input    0.00 | X-H torsion
[ 27230 7733 7732 7731 ] final  159.78 input   -0.00 | X-H torsion
[ 27232 7816 7815 7814 ] final  148.70 input   -0.00 | X-H torsion

> <Gold.Protein.ActiveResidues>
 ASP403  THR404  LEU406  ILE407  TYR408  ALA410  LYS411  TRP414  GLN425  TRP426 
 SER427  LYS428  LEU429  GLN430  VAL431  PHE432  ASP433  TYR453  SER462  ALA463 
 ILE464 

> <Gold.Protein.RotatedAtoms>
  242.2461   -8.3590   50.5570 H   0  0  0  0  0  0  0  0  0  0  0  0  # atno 6612 bound_to 6571
  240.0574   -8.9249   47.8298 H   0  0  0  0  0  0  0  0  0  0  0  0  # atno 6698 bound_to 6659
  241.3310   -3.5484   44.9626 H   0  0  0  0  0  0  0  0  0  0  0  0  # atno 6850 bound_to 6802
  240.9196   -7.2690   36.8322 H   0  0  0  0  0  0  0  0  0  0  0  0  # atno 7906 bound_to 7885
  239.8121   -8.5927   36.2296 H   0  0  0  0  0  0  0  0  0  0  0  0  # atno 7910 bound_to 7890
  242.2402   -8.6033   38.7542 H   0  0  0  0  0  0  0  0  0  0  0  0  # atno 7986 bound_to 7938
  244.7908   -7.9810   39.0089 H   0  0  0  0  0  0  0  0  0  0  0  0  # atno 8064 bound_to 8023
  247.0108   -8.3287   41.6849 H   0  0  0  0  0  0  0  0  0  0  0  0  # atno 8135 bound_to 8102
  248.9481   -8.0523   44.9151 H   0  0  0  0  0  0  0  0  0  0  0  0  # atno 8201 bound_to 8164
  249.2512   -5.7051   47.7003 H   0  0  0  0  0  0  0  0  0  0  0  0  # atno 8278 bound_to 8240
  251.0382   -7.3311   51.0165 H   0  0  0  0  0  0  0  0  0  0  0  0  # atno 8331 bound_to 8311
  252.1571  -11.7672   40.0694 H   0  0  0  0  0  0  0  0  0  0  0  0  # atno 9578 bound_to 9542
  250.0118   -4.3421   44.2585 H   0  0  0  0  0  0  0  0  0  0  0  0  # atno 10224 bound_to 10183
  241.8742  -10.1539   50.9340 LP  0  0  0  0  0  0  0  0  0  0  0  0  # atno 27200 bound_to 6334
  242.5753   -9.0570   52.0766 LP  0  0  0  0  0  0  0  0  0  0  0  0  # atno 27201 bound_to 6334
  241.7975   -5.5740   48.5968 LP  0  0  0  0  0  0  0  0  0  0  0  0  # atno 27202 bound_to 6498
  241.5091   -4.5621   49.9726 LP  0  0  0  0  0  0  0  0  0  0  0  0  # atno 27203 bound_to 6498
  241.4720   -6.8415   50.1555 LP  0  0  0  0  0  0  0  0  0  0  0  0  # atno 27204 bound_to 6571
  240.8330   -5.8950   46.6345 LP  0  0  0  0  0  0  0  0  0  0  0  0  # atno 27205 bound_to 6574
  241.3700   -7.2812   45.7456 LP  0  0  0  0  0  0  0  0  0  0  0  0  # atno 27206 bound_to 6574
  240.1461   -7.3674   48.6220 LP  0  0  0  0  0  0  0  0  0  0  0  0  # atno 27207 bound_to 6659
  242.5979  -10.8342   39.2244 LP  0  0  0  0  0  0  0  0  0  0  0  0  # atno 27208 bound_to 7888
  241.5975  -10.0262   40.3846 LP  0  0  0  0  0  0  0  0  0  0  0  0  # atno 27209 bound_to 7888
  244.8695   -9.1662   40.2939 LP  0  0  0  0  0  0  0  0  0  0  0  0  # atno 27210 bound_to 8023
  245.4212   -8.2357   43.4052 LP  0  0  0  0  0  0  0  0  0  0  0  0  # atno 27211 bound_to 8026
  245.9641   -9.7043   42.6646 LP  0  0  0  0  0  0  0  0  0  0  0  0  # atno 27212 bound_to 8026
  248.2880   -7.1694   41.4103 LP  0  0  0  0  0  0  0  0  0  0  0  0  # atno 27213 bound_to 8102
  249.8923   -6.1526   44.1697 LP  0  0  0  0  0  0  0  0  0  0  0  0  # atno 27214 bound_to 8105
  248.2406   -5.6471   44.0424 LP  0  0  0  0  0  0  0  0  0  0  0  0  # atno 27215 bound_to 8105
  247.2926   -8.6115   44.9436 LP  0  0  0  0  0  0  0  0  0  0  0  0  # atno 27216 bound_to 8164
  248.8952   -8.6815   49.1076 LP  0  0  0  0  0  0  0  0  0  0  0  0  # atno 27217 bound_to 8167
  248.6683   -9.4688   47.5816 LP  0  0  0  0  0  0  0  0  0  0  0  0  # atno 27218 bound_to 8167
  249.4601   -7.3611   47.1876 LP  0  0  0  0  0  0  0  0  0  0  0  0  # atno 27219 bound_to 8240
  251.4184  -10.3494   39.7675 LP  0  0  0  0  0  0  0  0  0  0  0  0  # atno 27220 bound_to 9542
  251.2664  -11.0573   41.2312 LP  0  0  0  0  0  0  0  0  0  0  0  0  # atno 27221 bound_to 9542
  248.6840   -6.7014   40.1835 LP  0  0  0  0  0  0  0  0  0  0  0  0  # atno 27222 bound_to 10096
  250.3961   -6.9310   40.0571 LP  0  0  0  0  0  0  0  0  0  0  0  0  # atno 27223 bound_to 10096
  249.4039   -7.2409   50.4058 LP  0  0  0  0  0  0  0  0  0  0  0  0  # atno 27224 bound_to 8311
  249.9150   -4.8503   45.8977 LP  0  0  0  0  0  0  0  0  0  0  0  0  # atno 27225 bound_to 10186
  250.3381   -4.4600   47.5313 LP  0  0  0  0  0  0  0  0  0  0  0  0  # atno 27226 bound_to 10186
  242.4035   -8.3127   37.0398 LP  0  0  0  0  0  0  0  0  0  0  0  0  # atno 27227 bound_to 7938
  245.2546   -6.5633   37.6049 LP  0  0  0  0  0  0  0  0  0  0  0  0  # atno 27228 bound_to 7941
  246.6697   -7.5511   37.7522 LP  0  0  0  0  0  0  0  0  0  0  0  0  # atno 27229 bound_to 7941
  242.8690   -6.2324   37.2226 LP  0  0  0  0  0  0  0  0  0  0  0  0  # atno 27230 bound_to 7733
  243.4945   -7.0518   35.8308 LP  0  0  0  0  0  0  0  0  0  0  0  0  # atno 27231 bound_to 7733
  240.8717   -6.6814   40.1241 LP  0  0  0  0  0  0  0  0  0  0  0  0  # atno 27232 bound_to 7816
  241.9498   -5.3984   39.6865 LP  0  0  0  0  0  0  0  0  0  0  0  0  # atno 27233 bound_to 7816
  240.0005   -6.4571   38.0763 LP  0  0  0  0  0  0  0  0  0  0  0  0  # atno 27234 bound_to 7885

> <Gold.Score>
     Fitness  S(hb_ext) S(vdw_ext)  S(hb_int)    S(int)      intcor
     23.32       0.00      17.08       0.00      -0.17      -0.75

> <Gold.Goldscore.Fitness>
23.3187

> <Gold.Goldscore.Internal.Vdw>
-0.3716

> <Gold.Goldscore.Internal.Torsion>
-0.5513

> <Gold.Goldscore.External.Vdw>
17.0813

> <Gold.Goldscore.Internal.HBond>
0.0000

> <Gold.Goldscore.External.HBond>
0.0000

> <Gold.Goldscore.Internal.Correction>
-0.7548

> <Gold.Goldscore.Internal.Vdw.Weighted>
-0.3716

> <Gold.Goldscore.Internal.Torsion.Weighted>
-0.5513

> <Gold.Goldscore.External.Vdw.Weighted>
23.4867

> <Gold.Goldscore.Internal.HBond.Weighted>
0.0000

> <Gold.Goldscore.External.HBond.Weighted>
0.0000

> <Gold.Goldscore.Internal.Correction.Weighted>
-0.7548

> <Gold.Rescore>
     Score     S(PLP)   S(hbond)     S(cho)   S(metal)  DE(clash)   DE(tors)     intcor
      9.16      -8.25       0.72       0.00       0.00       0.00       0.62       ----

> <Gold.PLP.Fitness>
9.1606

> <Gold.PLP.PLP>
-8.2460

> <Gold.PLP.part.hbond>
-1.0000

> <Gold.PLP.part.metal>
0.0000

> <Gold.PLP.part.buried>
0.3708

> <Gold.PLP.part.nonpolar>
-8.4732

> <Gold.PLP.part.repulsive>
0.3368

> <Gold.PLP.ligand.clash>
0.0000

> <Gold.PLP.ligand.torsion>
0.6227

> <Gold.PLP.Chemscore.Hbond>
0.7200

> <Gold.PLP.Chemscore.CHOScore>
0.0000

> <Gold.PLP.Chemscore.Metal>
0.0000

> <Gold.Chemscore.Hbonds>
donor molecule, donor type, donor heavy atom, donor atom, acceptor molecule, acceptor atom, score
      P1  H  6810  6861       L1    17  0.32

> <Gold.PLP.Chemscore.Internal.Correction>
   9.000000E+99

