#       Name:                CT1002167954
#       Creating user name   hitesit
#       Creation time:       Sun Apr 16 20:33:09 2023


#       File generated by GOLD software.
#

@<TRIPOS>MOLECULE
CT1002167954|ligand_prepared|mol2|1|dock4
    29    30     1
SMALL
NO_CHARGES


@<TRIPOS>ATOM
      1 C1         247.4372 -12.5336  40.6359 C.3            1 RES1               0.0000
      2 C2         247.2449 -12.7264  42.1540 C.ar           1 RES1               0.0000
      3 C3         246.5036 -11.3982  40.2266 C.2            1 RES1               0.0000
      4 C4         248.9165 -12.2281  40.4286 C.2            1 RES1               0.0000
      5 C5         247.0857 -13.7848  39.7978 C.3            1 RES1               0.0000
      6 C6         247.4020 -13.9814  42.7345 C.ar           1 RES1               0.0000
      7 C7         246.9137 -11.6601  42.9858 C.ar           1 RES1               0.0000
      8 N8         247.0664 -10.1891  39.9417 N.am           1 RES1               0.0000
      9 O9         245.2888 -11.5505  40.1926 O.2            1 RES1               0.0000
     10 N10        249.2561 -10.9857  39.9608 N.am           1 RES1               0.0000
     11 O11        249.7920 -13.0464  40.6818 O.2            1 RES1               0.0000
     12 C12        247.0443 -13.5275  38.2997 C.3            1 RES1               0.0000
     13 C13        247.2368 -14.1634  44.0975 C.ar           1 RES1               0.0000
     14 C14        246.7488 -11.8443  44.3487 C.ar           1 RES1               0.0000
     15 C15        248.4001  -9.9419  39.7372 C.2            1 RES1               0.0000
     16 C16        246.9106 -13.0951  44.9055 C.ar           1 RES1               0.0000
     17 O17        248.7874  -8.8368  39.3684 O.2            1 RES1               0.0000
     18 H18        247.8281 -14.5663  40.0015 H              1 RES1               0.0000
     19 H19        246.1064 -14.1610  40.1185 H              1 RES1               0.0000
     20 H20        247.6562 -14.8344  42.1141 H              1 RES1               0.0000
     21 H21        246.7804 -10.6673  42.5695 H              1 RES1               0.0000
     22 H22        246.4375  -9.3952  39.8745 H              1 RES1               0.0000
     23 H23        250.2381 -10.8240  39.7608 H              1 RES1               0.0000
     24 H24        246.7934 -14.4376  37.7588 H              1 RES1               0.0000
     25 H25        246.2984 -12.7732  38.0583 H              1 RES1               0.0000
     26 H26        248.0099 -13.1760  37.9419 H              1 RES1               0.0000
     27 H27        247.3639 -15.1501  44.5306 H              1 RES1               0.0000
     28 H28        246.4914 -11.0008  44.9807 H              1 RES1               0.0000
     29 H29        246.7816 -13.2379  45.9733 H              1 RES1               0.0000
@<TRIPOS>BOND
    1    1    2 1     
    2    1    3 1     
    3    1    4 1     
    4    1    5 1     
    5    2    6 ar    
    6    2    7 ar    
    7    3    8 1     
    8    3    9 2     
    9    4   10 1     
   10    4   11 2     
   11    5   12 1     
   12    5   18 1     
   13    5   19 1     
   14    6   13 ar    
   15    6   20 1     
   16    7   14 ar    
   17    7   21 1     
   18    8   15 1     
   19    8   22 1     
   20   10   15 1     
   21   10   23 1     
   22   12   24 1     
   23   12   25 1     
   24   12   26 1     
   25   13   16 ar    
   26   13   27 1     
   27   14   16 ar    
   28   14   28 1     
   29   15   17 2     
   30   16   29 1     
@<TRIPOS>SUBSTRUCTURE
      1 RES1           1
@<TRIPOS>SET
DONOR_HYDROGENS      STATIC     ATOMS    <user>   **** ""
2 22 23
ATOM$RED        STATIC     ATOMS    COLORGROUP SYSTEM
2 22 23
@<TRIPOS>COMMENT
> <Gold.Version>
2022.3.0

> <Gold.Id.Protein>
unknown|4v3u_clean|pdb

> <Gold.Protein.RotatedTorsions>
[ 6612 6571 6572 6573 ] final   42.25 input  122.18 | X-H torsion
[ 6698 6659 6660 6661 ] final  168.22 input  126.07 | X-H torsion
[ 8064 8023 8024 8025 ] final  137.56 input   40.84 | X-H torsion
[ 8135 8102 8103 8104 ] final  117.21 input  100.47 | X-H torsion
[ 8201 8164 8165 8166 ] final    4.11 input   73.50 | X-H torsion
[ 8278 8240 8241 8242 ] final  143.74 input   88.79 | X-H torsion
[ 9578 9542 9541 9539 ] final  -15.57 input   60.02 | X-H torsion
[ 8331 8311 8312 8313 ] final   46.75 input   92.25 | X-H torsion
[ 7986 7938 7939 7940 ] final  155.67 input   70.73 | X-H torsion
[ 7906 7885 7886 7887 ] final   78.86 input  102.20 | X-H torsion
[ 6850 6802 6803 6804 ] final  -51.97 input  120.36 | X-H torsion
[ 10224 10183 10184 10185 ] final    9.76 input   40.62 | X-H torsion
[ 7910 7890 7889 7886 ] final  -77.04 input   60.02 | X-H torsion
[ 27200 6334 6333 6332 ] final  139.12 input    0.00 | X-H torsion
[ 27202 6498 6497 6496 ] final -108.70 input   -0.00 | X-H torsion
[ 27205 6574 6573 6572 ] final  -32.59 input   -0.00 | X-H torsion
[ 27208 7888 7887 7886 ] final  -11.24 input    0.00 | X-H torsion
[ 27211 8026 8025 8024 ] final -143.10 input   -0.00 | X-H torsion
[ 27214 8105 8104 8103 ] final  -81.89 input    0.00 | X-H torsion
[ 27217 8167 8166 8165 ] final -117.05 input    0.00 | X-H torsion
[ 27222 10096 10095 10094 ] final -117.33 input   -0.00 | X-H torsion
[ 27225 10186 10185 10184 ] final   16.69 input    0.00 | X-H torsion
[ 27228 7941 7940 7939 ] final  -67.44 input    0.00 | X-H torsion
[ 27230 7733 7732 7731 ] final -160.32 input   -0.00 | X-H torsion
[ 27232 7816 7815 7814 ] final  -67.11 input   -0.00 | X-H torsion

> <Gold.Protein.ActiveResidues>
 ASP403  THR404  LEU406  ILE407  TYR408  ALA410  LYS411  TRP414  GLN425  TRP426 
 SER427  LYS428  LEU429  GLN430  VAL431  PHE432  ASP433  TYR453  SER462  ALA463 
 ILE464 

> <Gold.Protein.RotatedAtoms>
  241.0122   -7.8748   50.2984 H   0  0  0  0  0  0  0  0  0  0  0  0  # atno 6612 bound_to 6571
  239.7882   -8.9627   48.2935 H   0  0  0  0  0  0  0  0  0  0  0  0  # atno 6698 bound_to 6659
  240.9477   -3.4351   45.0517 H   0  0  0  0  0  0  0  0  0  0  0  0  # atno 6850 bound_to 6802
  240.4956   -7.3345   36.7184 H   0  0  0  0  0  0  0  0  0  0  0  0  # atno 7906 bound_to 7885
  238.8202   -8.6435   36.2743 H   0  0  0  0  0  0  0  0  0  0  0  0  # atno 7910 bound_to 7890
  242.1269   -8.9692   37.1976 H   0  0  0  0  0  0  0  0  0  0  0  0  # atno 7986 bound_to 7938
  244.1796   -7.9792   39.6240 H   0  0  0  0  0  0  0  0  0  0  0  0  # atno 8064 bound_to 8023
  248.3991   -7.6830   41.0751 H   0  0  0  0  0  0  0  0  0  0  0  0  # atno 8135 bound_to 8102
  248.7543   -8.7482   45.3733 H   0  0  0  0  0  0  0  0  0  0  0  0  # atno 8201 bound_to 8164
  249.9978   -6.3898   46.8559 H   0  0  0  0  0  0  0  0  0  0  0  0  # atno 8278 bound_to 8240
  250.8402   -7.7780   51.0854 H   0  0  0  0  0  0  0  0  0  0  0  0  # atno 8331 bound_to 8311
  252.1246  -11.8393   40.2617 H   0  0  0  0  0  0  0  0  0  0  0  0  # atno 9578 bound_to 9542
  249.9125   -4.3826   44.2812 H   0  0  0  0  0  0  0  0  0  0  0  0  # atno 10224 bound_to 10183
  242.0923  -10.2287   50.9188 LP  0  0  0  0  0  0  0  0  0  0  0  0  # atno 27200 bound_to 6334
  242.3572   -8.9822   52.0918 LP  0  0  0  0  0  0  0  0  0  0  0  0  # atno 27201 bound_to 6334
  240.9100   -5.3415   48.9344 LP  0  0  0  0  0  0  0  0  0  0  0  0  # atno 27202 bound_to 6498
  242.3966   -4.7946   49.6351 LP  0  0  0  0  0  0  0  0  0  0  0  0  # atno 27203 bound_to 6498
  242.6652   -7.3097   50.4057 LP  0  0  0  0  0  0  0  0  0  0  0  0  # atno 27204 bound_to 6571
  241.7702   -6.1923   46.5725 LP  0  0  0  0  0  0  0  0  0  0  0  0  # atno 27205 bound_to 6574
  240.4329   -6.9838   45.8076 LP  0  0  0  0  0  0  0  0  0  0  0  0  # atno 27206 bound_to 6574
  240.4073   -7.3307   48.1722 LP  0  0  0  0  0  0  0  0  0  0  0  0  # atno 27207 bound_to 6659
  241.3194  -10.2874   40.1564 LP  0  0  0  0  0  0  0  0  0  0  0  0  # atno 27208 bound_to 7888
  242.8760  -10.5730   39.4526 LP  0  0  0  0  0  0  0  0  0  0  0  0  # atno 27209 bound_to 7888
  245.4617   -9.1680   39.6977 LP  0  0  0  0  0  0  0  0  0  0  0  0  # atno 27210 bound_to 8023
  246.2285   -8.7076   43.6626 LP  0  0  0  0  0  0  0  0  0  0  0  0  # atno 27211 bound_to 8026
  245.1568   -9.2324   42.4072 LP  0  0  0  0  0  0  0  0  0  0  0  0  # atno 27212 bound_to 8026
  246.9273   -7.8021   42.0080 LP  0  0  0  0  0  0  0  0  0  0  0  0  # atno 27213 bound_to 8102
  249.8853   -6.1449   44.2450 LP  0  0  0  0  0  0  0  0  0  0  0  0  # atno 27214 bound_to 8105
  248.2475   -5.6548   43.9670 LP  0  0  0  0  0  0  0  0  0  0  0  0  # atno 27215 bound_to 8105
  247.4818   -7.9322   44.4963 LP  0  0  0  0  0  0  0  0  0  0  0  0  # atno 27216 bound_to 8164
  248.6247   -8.6831   49.1007 LP  0  0  0  0  0  0  0  0  0  0  0  0  # atno 27217 bound_to 8167
  248.9388   -9.4672   47.5885 LP  0  0  0  0  0  0  0  0  0  0  0  0  # atno 27218 bound_to 8167
  248.7277   -6.6895   48.0159 LP  0  0  0  0  0  0  0  0  0  0  0  0  # atno 27219 bound_to 8240
  251.5371  -10.4582   39.6335 LP  0  0  0  0  0  0  0  0  0  0  0  0  # atno 27220 bound_to 9542
  251.1805  -10.8758   41.1714 LP  0  0  0  0  0  0  0  0  0  0  0  0  # atno 27221 bound_to 9542
  248.8566   -6.5916   40.6024 LP  0  0  0  0  0  0  0  0  0  0  0  0  # atno 27222 bound_to 10096
  250.2235   -7.0407   39.6381 LP  0  0  0  0  0  0  0  0  0  0  0  0  # atno 27223 bound_to 10096
  249.5977   -6.8033   50.3383 LP  0  0  0  0  0  0  0  0  0  0  0  0  # atno 27224 bound_to 8311
  249.9474   -4.8503   45.8900 LP  0  0  0  0  0  0  0  0  0  0  0  0  # atno 27225 bound_to 10186
  250.3057   -4.4600   47.5390 LP  0  0  0  0  0  0  0  0  0  0  0  0  # atno 27226 bound_to 10186
  242.5146   -7.9542   38.5650 LP  0  0  0  0  0  0  0  0  0  0  0  0  # atno 27227 bound_to 7938
  246.4321   -7.6993   37.3367 LP  0  0  0  0  0  0  0  0  0  0  0  0  # atno 27228 bound_to 7941
  245.4922   -6.4151   38.0204 LP  0  0  0  0  0  0  0  0  0  0  0  0  # atno 27229 bound_to 7941
  242.5422   -6.7108   37.1066 LP  0  0  0  0  0  0  0  0  0  0  0  0  # atno 27230 bound_to 7733
  243.8212   -6.5733   35.9468 LP  0  0  0  0  0  0  0  0  0  0  0  0  # atno 27231 bound_to 7733
  242.2104   -5.8589   39.6264 LP  0  0  0  0  0  0  0  0  0  0  0  0  # atno 27232 bound_to 7816
  240.6111   -6.2210   40.1842 LP  0  0  0  0  0  0  0  0  0  0  0  0  # atno 27233 bound_to 7816
  240.4156   -6.3930   38.1877 LP  0  0  0  0  0  0  0  0  0  0  0  0  # atno 27234 bound_to 7885

> <Gold.Score>
     Fitness  S(hb_ext) S(vdw_ext)  S(hb_int)    S(int)      intcor
     27.75       6.21      16.25       0.00      -0.81      -0.78

> <Gold.Goldscore.Fitness>
27.7514

> <Gold.Goldscore.Internal.Vdw>
-1.0607

> <Gold.Goldscore.Internal.Torsion>
-0.5279

> <Gold.Goldscore.External.Vdw>
16.2532

> <Gold.Goldscore.Internal.HBond>
0.0000

> <Gold.Goldscore.External.HBond>
6.2098

> <Gold.Goldscore.Internal.Correction>
-0.7819

> <Gold.Goldscore.Hbonds>
donor molecule, donor type, donor heavy atom, donor atom, acceptor molecule, acceptor atom, score
      P1  H  8102  8135       L1    17  0.03
      L1  H     8    22       P1  8023  0.94
      L1  H    10    23       P1  9542  0.26

> <Gold.Goldscore.Internal.Vdw.Weighted>
-1.0607

> <Gold.Goldscore.Internal.Torsion.Weighted>
-0.5279

> <Gold.Goldscore.External.Vdw.Weighted>
22.3482

> <Gold.Goldscore.Internal.HBond.Weighted>
0.0000

> <Gold.Goldscore.External.HBond.Weighted>
6.2098

> <Gold.Goldscore.Internal.Correction.Weighted>
-0.7819

> <Gold.Rescore>
     Score     S(PLP)   S(hbond)     S(cho)   S(metal)  DE(clash)   DE(tors)     intcor
     22.33     -17.46       1.99       0.00       0.00       0.00       0.55       ----

> <Gold.PLP.Fitness>
22.3338

> <Gold.PLP.PLP>
-17.4584

> <Gold.PLP.part.hbond>
-3.5161

> <Gold.PLP.part.metal>
0.0000

> <Gold.PLP.part.buried>
-3.0197

> <Gold.PLP.part.nonpolar>
-12.7129

> <Gold.PLP.part.repulsive>
2.3153

> <Gold.PLP.ligand.clash>
0.0000

> <Gold.PLP.ligand.torsion>
0.5527

> <Gold.PLP.Chemscore.Hbond>
1.9936

> <Gold.PLP.Chemscore.CHOScore>
0.0000

> <Gold.PLP.Chemscore.Metal>
0.0000

> <Gold.Chemscore.Hbonds>
donor molecule, donor type, donor heavy atom, donor atom, acceptor molecule, acceptor atom, score
      L1  H     8    22       P1  8023  0.55
      L1  H    10    23       P1  9542  0.88
      P1  H  8102  8135       L1    17  0.59

> <Gold.PLP.Chemscore.Internal.Correction>
   9.000000E+99

