#       Name:                CT1002167954
#       Creating user name   hitesit
#       Creation time:       Sun Apr 16 20:33:08 2023


#       File generated by GOLD software.
#

@<TRIPOS>MOLECULE
CT1002167954|ligand_prepared|mol2|1|dock2
    29    30     1
SMALL
NO_CHARGES


@<TRIPOS>ATOM
      1 C1         248.3138 -11.1565  39.3647 C.3            1 RES1               0.0000
      2 C2         248.5244 -12.2147  38.2625 C.ar           1 RES1               0.0000
      3 C3         246.8431 -10.7553  39.2981 C.2            1 RES1               0.0000
      4 C4         248.7188 -11.8202  40.6762 C.2            1 RES1               0.0000
      5 C5         249.1780  -9.8867  39.1851 C.3            1 RES1               0.0000
      6 C6         249.8077 -12.5910  37.8774 C.ar           1 RES1               0.0000
      7 C7         247.4471 -12.8242  37.6248 C.ar           1 RES1               0.0000
      8 N8         246.0180 -11.2136  40.2824 N.am           1 RES1               0.0000
      9 O9         246.4063 -10.0799  38.3744 O.2            1 RES1               0.0000
     10 N10        247.7442 -12.0336  41.6156 N.am           1 RES1               0.0000
     11 O11        249.8698 -12.1755  40.8980 O.2            1 RES1               0.0000
     12 C12        249.2052  -9.3603  37.7588 C.3            1 RES1               0.0000
     13 C13        250.0069 -13.5442  36.8925 C.ar           1 RES1               0.0000
     14 C14        247.6486 -13.7770  36.6400 C.ar           1 RES1               0.0000
     15 C15        246.4065 -11.7883  41.4658 C.2            1 RES1               0.0000
     16 C16        248.9277 -14.1381  36.2735 C.ar           1 RES1               0.0000
     17 O17        245.5835 -12.0578  42.3361 O.2            1 RES1               0.0000
     18 H18        248.7911  -9.1001  39.8445 H              1 RES1               0.0000
     19 H19        250.2051 -10.1114  39.4980 H              1 RES1               0.0000
     20 H20        250.6691 -12.1327  38.3515 H              1 RES1               0.0000
     21 H21        246.4320 -12.5549  37.8961 H              1 RES1               0.0000
     22 H22        245.0197 -11.1205  40.1239 H              1 RES1               0.0000
     23 H23        248.0438 -12.4101  42.5094 H              1 RES1               0.0000
     24 H24        249.8253  -8.4691  37.6883 H              1 RES1               0.0000
     25 H25        249.6082 -10.1082  37.0791 H              1 RES1               0.0000
     26 H26        248.2026  -9.1029  37.4235 H              1 RES1               0.0000
     27 H27        251.0155 -13.8239  36.6067 H              1 RES1               0.0000
     28 H28        246.7963 -14.2414  36.1550 H              1 RES1               0.0000
     29 H29        249.0840 -14.8851  35.5023 H              1 RES1               0.0000
@<TRIPOS>BOND
    1    1    2 1     
    2    1    3 1     
    3    1    4 1     
    4    1    5 1     
    5    2    6 ar    
    6    2    7 ar    
    7    3    8 1     
    8    3    9 2     
    9    4   10 1     
   10    4   11 2     
   11    5   12 1     
   12    5   18 1     
   13    5   19 1     
   14    6   13 ar    
   15    6   20 1     
   16    7   14 ar    
   17    7   21 1     
   18    8   15 1     
   19    8   22 1     
   20   10   15 1     
   21   10   23 1     
   22   12   24 1     
   23   12   25 1     
   24   12   26 1     
   25   13   16 ar    
   26   13   27 1     
   27   14   16 ar    
   28   14   28 1     
   29   15   17 2     
   30   16   29 1     
@<TRIPOS>SUBSTRUCTURE
      1 RES1           1
@<TRIPOS>SET
DONOR_HYDROGENS      STATIC     ATOMS    <user>   **** ""
2 22 23
ATOM$RED        STATIC     ATOMS    COLORGROUP SYSTEM
2 22 23
@<TRIPOS>COMMENT
> <Gold.Version>
2022.3.0

> <Gold.Id.Protein>
unknown|4v3u_clean|pdb

> <Gold.Protein.RotatedTorsions>
[ 6612 6571 6572 6573 ] final  172.85 input  122.18 | X-H torsion
[ 6698 6659 6660 6661 ] final -161.03 input  126.07 | X-H torsion
[ 8064 8023 8024 8025 ] final  -97.67 input   40.84 | X-H torsion
[ 8135 8102 8103 8104 ] final  -67.87 input  100.47 | X-H torsion
[ 8201 8164 8165 8166 ] final -130.60 input   73.50 | X-H torsion
[ 8278 8240 8241 8242 ] final  172.22 input   88.79 | X-H torsion
[ 9578 9542 9541 9539 ] final   30.86 input   60.02 | X-H torsion
[ 8331 8311 8312 8313 ] final -156.09 input   92.25 | X-H torsion
[ 7986 7938 7939 7940 ] final    2.93 input   70.73 | X-H torsion
[ 7906 7885 7886 7887 ] final -148.55 input  102.20 | X-H torsion
[ 6850 6802 6803 6804 ] final  -56.65 input  120.36 | X-H torsion
[ 10224 10183 10184 10185 ] final   29.95 input   40.62 | X-H torsion
[ 7910 7890 7889 7886 ] final -178.00 input   60.02 | X-H torsion
[ 27200 6334 6333 6332 ] final -140.82 input    0.00 | X-H torsion
[ 27202 6498 6497 6496 ] final  -73.83 input   -0.00 | X-H torsion
[ 27205 6574 6573 6572 ] final  -27.01 input   -0.00 | X-H torsion
[ 27208 7888 7887 7886 ] final   16.75 input    0.00 | X-H torsion
[ 27211 8026 8025 8024 ] final -160.86 input   -0.00 | X-H torsion
[ 27214 8105 8104 8103 ] final    9.23 input    0.00 | X-H torsion
[ 27217 8167 8166 8165 ] final   34.54 input    0.00 | X-H torsion
[ 27222 10096 10095 10094 ] final  -98.80 input   -0.00 | X-H torsion
[ 27225 10186 10185 10184 ] final  -88.55 input    0.00 | X-H torsion
[ 27228 7941 7940 7939 ] final   37.59 input    0.00 | X-H torsion
[ 27230 7733 7732 7731 ] final -161.48 input   -0.00 | X-H torsion
[ 27232 7816 7815 7814 ] final -130.01 input   -0.00 | X-H torsion

> <Gold.Protein.ActiveResidues>
 ASP403  THR404  LEU406  ILE407  TYR408  ALA410  LYS411  TRP414  GLN425  TRP426 
 SER427  LYS428  LEU429  GLN430  VAL431  PHE432  ASP433  TYR453  SER462  ALA463 
 ILE464 

> <Gold.Protein.RotatedAtoms>
  242.6046   -8.0286   50.5305 H   0  0  0  0  0  0  0  0  0  0  0  0  # atno 6612 bound_to 6571
  240.0201   -8.9473   47.8839 H   0  0  0  0  0  0  0  0  0  0  0  0  # atno 6698 bound_to 6659
  241.0169   -3.4416   45.0331 H   0  0  0  0  0  0  0  0  0  0  0  0  # atno 6850 bound_to 6802
  239.7787   -6.5463   37.9340 H   0  0  0  0  0  0  0  0  0  0  0  0  # atno 7906 bound_to 7885
  238.7011  -10.0801   36.1744 H   0  0  0  0  0  0  0  0  0  0  0  0  # atno 7910 bound_to 7890
  242.6254   -7.7115   38.2509 H   0  0  0  0  0  0  0  0  0  0  0  0  # atno 7986 bound_to 7938
  245.4979   -8.6454   39.0778 H   0  0  0  0  0  0  0  0  0  0  0  0  # atno 8064 bound_to 8023
  246.9036   -7.8751   41.9876 H   0  0  0  0  0  0  0  0  0  0  0  0  # atno 8135 bound_to 8102
  248.0722   -7.6201   44.4108 H   0  0  0  0  0  0  0  0  0  0  0  0  # atno 8201 bound_to 8164
  249.9341   -6.8182   46.8359 H   0  0  0  0  0  0  0  0  0  0  0  0  # atno 8278 bound_to 8240
  249.4192   -7.0988   50.3686 H   0  0  0  0  0  0  0  0  0  0  0  0  # atno 8331 bound_to 8311
  251.8186  -11.7702   40.9295 H   0  0  0  0  0  0  0  0  0  0  0  0  # atno 9578 bound_to 9542
  249.6058   -4.4500   44.2944 H   0  0  0  0  0  0  0  0  0  0  0  0  # atno 10224 bound_to 10183
  241.3720   -9.5169   51.3830 LP  0  0  0  0  0  0  0  0  0  0  0  0  # atno 27200 bound_to 6334
  243.0775   -9.6941   51.6276 LP  0  0  0  0  0  0  0  0  0  0  0  0  # atno 27201 bound_to 6334
  240.7895   -5.0428   49.3413 LP  0  0  0  0  0  0  0  0  0  0  0  0  # atno 27202 bound_to 6498
  242.5171   -5.0933   49.2281 LP  0  0  0  0  0  0  0  0  0  0  0  0  # atno 27203 bound_to 6498
  241.1253   -7.1610   50.1812 LP  0  0  0  0  0  0  0  0  0  0  0  0  # atno 27204 bound_to 6571
  241.8195   -6.2517   46.5385 LP  0  0  0  0  0  0  0  0  0  0  0  0  # atno 27205 bound_to 6574
  240.3836   -6.9244   45.8416 LP  0  0  0  0  0  0  0  0  0  0  0  0  # atno 27206 bound_to 6574
  240.1823   -7.3457   48.5696 LP  0  0  0  0  0  0  0  0  0  0  0  0  # atno 27207 bound_to 6659
  241.2444  -10.5690   39.8555 LP  0  0  0  0  0  0  0  0  0  0  0  0  # atno 27208 bound_to 7888
  242.9510  -10.2914   39.7535 LP  0  0  0  0  0  0  0  0  0  0  0  0  # atno 27209 bound_to 7888
  244.1841   -8.5224   40.2271 LP  0  0  0  0  0  0  0  0  0  0  0  0  # atno 27210 bound_to 8023
  246.3579   -8.9294   43.5879 LP  0  0  0  0  0  0  0  0  0  0  0  0  # atno 27211 bound_to 8026
  245.0274   -9.0106   42.4819 LP  0  0  0  0  0  0  0  0  0  0  0  0  # atno 27212 bound_to 8026
  248.3931   -7.6139   41.1136 LP  0  0  0  0  0  0  0  0  0  0  0  0  # atno 27213 bound_to 8102
  249.1657   -5.9936   43.2508 LP  0  0  0  0  0  0  0  0  0  0  0  0  # atno 27214 bound_to 8105
  248.9672   -5.8061   44.9612 LP  0  0  0  0  0  0  0  0  0  0  0  0  # atno 27215 bound_to 8105
  248.1477   -9.0334   45.4360 LP  0  0  0  0  0  0  0  0  0  0  0  0  # atno 27216 bound_to 8164
  248.5147   -9.4519   47.6120 LP  0  0  0  0  0  0  0  0  0  0  0  0  # atno 27217 bound_to 8167
  249.0488   -8.6984   49.0772 LP  0  0  0  0  0  0  0  0  0  0  0  0  # atno 27218 bound_to 8167
  248.7902   -6.2693   48.0355 LP  0  0  0  0  0  0  0  0  0  0  0  0  # atno 27219 bound_to 8240
  251.9570  -11.0511   39.4766 LP  0  0  0  0  0  0  0  0  0  0  0  0  # atno 27220 bound_to 9542
  251.0689  -10.3525   40.6555 LP  0  0  0  0  0  0  0  0  0  0  0  0  # atno 27221 bound_to 9542
  248.7255   -6.6506   40.3634 LP  0  0  0  0  0  0  0  0  0  0  0  0  # atno 27222 bound_to 10096
  250.3546   -6.9818   39.8771 LP  0  0  0  0  0  0  0  0  0  0  0  0  # atno 27223 bound_to 10096
  250.9891   -7.4683   51.0402 LP  0  0  0  0  0  0  0  0  0  0  0  0  # atno 27224 bound_to 8311
  249.3574   -4.6083   47.1097 LP  0  0  0  0  0  0  0  0  0  0  0  0  # atno 27225 bound_to 10186
  250.8958   -4.7020   46.3194 LP  0  0  0  0  0  0  0  0  0  0  0  0  # atno 27226 bound_to 10186
  242.0261   -9.1865   37.5329 LP  0  0  0  0  0  0  0  0  0  0  0  0  # atno 27227 bound_to 7938
  245.2888   -6.9617   37.1424 LP  0  0  0  0  0  0  0  0  0  0  0  0  # atno 27228 bound_to 7941
  246.6355   -7.1527   38.2147 LP  0  0  0  0  0  0  0  0  0  0  0  0  # atno 27229 bound_to 7941
  242.5480   -6.6962   37.1144 LP  0  0  0  0  0  0  0  0  0  0  0  0  # atno 27230 bound_to 7733
  243.8155   -6.5879   35.9390 LP  0  0  0  0  0  0  0  0  0  0  0  0  # atno 27231 bound_to 7733
  241.9415   -6.7101   39.7671 LP  0  0  0  0  0  0  0  0  0  0  0  0  # atno 27232 bound_to 7816
  240.8799   -5.3697   40.0435 LP  0  0  0  0  0  0  0  0  0  0  0  0  # atno 27233 bound_to 7816
  241.1175   -7.1647   36.9975 LP  0  0  0  0  0  0  0  0  0  0  0  0  # atno 27234 bound_to 7885

> <Gold.Score>
     Fitness  S(hb_ext) S(vdw_ext)  S(hb_int)    S(int)      intcor
     21.62       0.64      17.51       0.00      -3.09      -0.78

> <Gold.Goldscore.Fitness>
21.6189

> <Gold.Goldscore.Internal.Vdw>
-3.1277

> <Gold.Goldscore.Internal.Torsion>
-0.7461

> <Gold.Goldscore.External.Vdw>
17.5061

> <Gold.Goldscore.Internal.HBond>
0.0000

> <Gold.Goldscore.External.HBond>
0.6398

> <Gold.Goldscore.Internal.Correction>
-0.7819

> <Gold.Goldscore.Hbonds>
donor molecule, donor type, donor heavy atom, donor atom, acceptor molecule, acceptor atom, score
      P1  H  8023  8064       L1     9  0.14
      L1  H     8    22       P1  7888  0.18

> <Gold.Goldscore.Internal.Vdw.Weighted>
-3.1277

> <Gold.Goldscore.Internal.Torsion.Weighted>
-0.7461

> <Gold.Goldscore.External.Vdw.Weighted>
24.0709

> <Gold.Goldscore.Internal.HBond.Weighted>
0.0000

> <Gold.Goldscore.External.HBond.Weighted>
0.6398

> <Gold.Goldscore.Internal.Correction.Weighted>
-0.7819

> <Gold.Rescore>
     Score     S(PLP)   S(hbond)     S(cho)   S(metal)  DE(clash)   DE(tors)     intcor
     19.26     -21.00       0.04       0.00       0.00       1.38       0.24       ----

> <Gold.PLP.Fitness>
19.2628

> <Gold.PLP.PLP>
-20.9979

> <Gold.PLP.part.hbond>
-2.6241

> <Gold.PLP.part.metal>
0.0000

> <Gold.PLP.part.buried>
-1.0314

> <Gold.PLP.part.nonpolar>
-17.9567

> <Gold.PLP.part.repulsive>
0.4119

> <Gold.PLP.ligand.clash>
1.3821

> <Gold.PLP.ligand.torsion>
0.2432

> <Gold.PLP.Chemscore.Hbond>
0.0445

> <Gold.PLP.Chemscore.CHOScore>
0.0000

> <Gold.PLP.Chemscore.Metal>
0.0000

> <Gold.Chemscore.Hbonds>
donor molecule, donor type, donor heavy atom, donor atom, acceptor molecule, acceptor atom, score
      L1  H    10    23       P1  8110  0.21
      P1  H  8023  8064       L1     9  0.88
      P1  H  9542  9578       L1    11  0.08

> <Gold.PLP.Chemscore.Internal.Correction>
   9.000000E+99

