#       Name:                CT1002167954
#       Creating user name   hitesit
#       Creation time:       Sun Apr 16 20:16:04 2023


#       File generated by GOLD software.
#

@<TRIPOS>MOLECULE
CT1002167954|ligand_prepared|mol2|1|dock9
    29    30     1
SMALL
NO_CHARGES


@<TRIPOS>ATOM
      1 C1          26.1680  -9.8006   2.6649 C.3            1 RES1               0.0000
      2 C2          25.2252 -10.9172   2.1719 C.ar           1 RES1               0.0000
      3 C3          26.2514  -9.9488   4.1813 C.2            1 RES1               0.0000
      4 C4          27.4950 -10.0140   1.9451 C.2            1 RES1               0.0000
      5 C5          25.6710  -8.3733   2.3374 C.3            1 RES1               0.0000
      6 C6          24.5342 -10.7825   0.9714 C.ar           1 RES1               0.0000
      7 C7          25.0386 -12.0868   2.9039 C.ar           1 RES1               0.0000
      8 N8          27.4031 -10.4591   4.7039 N.am           1 RES1               0.0000
      9 O9          25.3062  -9.6594   4.9045 O.2            1 RES1               0.0000
     10 N10         28.5861 -10.3593   2.6988 N.am           1 RES1               0.0000
     11 O11         27.6019  -9.9026   0.7300 O.2            1 RES1               0.0000
     12 C12         26.4430  -7.2760   3.0530 C.3            1 RES1               0.0000
     13 C13         23.6895 -11.7820   0.5177 C.ar           1 RES1               0.0000
     14 C14         24.1933 -13.0850   2.4484 C.ar           1 RES1               0.0000
     15 C15         28.5934 -10.6215   4.0417 C.2            1 RES1               0.0000
     16 C16         23.5188 -12.9340   1.2555 C.ar           1 RES1               0.0000
     17 O17         29.6039 -10.9800   4.6397 O.2            1 RES1               0.0000
     18 H18         25.7491  -8.2119   1.2552 H              1 RES1               0.0000
     19 H19         24.6117  -8.2965   2.6123 H              1 RES1               0.0000
     20 H20         24.6540  -9.8819   0.3784 H              1 RES1               0.0000
     21 H21         25.5581 -12.2269   3.8458 H              1 RES1               0.0000
     22 H22         27.3769 -10.7466   5.6770 H              1 RES1               0.0000
     23 H23         29.4753 -10.4269   2.2138 H              1 RES1               0.0000
     24 H24         26.0539  -6.2951   2.7881 H              1 RES1               0.0000
     25 H25         26.3660  -7.3910   4.1322 H              1 RES1               0.0000
     26 H26         27.4966  -7.3068   2.7831 H              1 RES1               0.0000
     27 H27         23.1599 -11.6576  -0.4211 H              1 RES1               0.0000
     28 H28         24.0615 -13.9897   3.0327 H              1 RES1               0.0000
     29 H29         22.8574 -13.7169   0.8997 H              1 RES1               0.0000
@<TRIPOS>BOND
    1    1    2 1     
    2    1    3 1     
    3    1    4 1     
    4    1    5 1     
    5    2    6 ar    
    6    2    7 ar    
    7    3    8 1     
    8    3    9 2     
    9    4   10 1     
   10    4   11 2     
   11    5   12 1     
   12    5   18 1     
   13    5   19 1     
   14    6   13 ar    
   15    6   20 1     
   16    7   14 ar    
   17    7   21 1     
   18    8   15 1     
   19    8   22 1     
   20   10   15 1     
   21   10   23 1     
   22   12   24 1     
   23   12   25 1     
   24   12   26 1     
   25   13   16 ar    
   26   13   27 1     
   27   14   16 ar    
   28   14   28 1     
   29   15   17 2     
   30   16   29 1     
@<TRIPOS>SUBSTRUCTURE
      1 RES1           1
@<TRIPOS>SET
DONOR_HYDROGENS      STATIC     ATOMS    <user>   **** ""
2 22 23
ATOM$RED        STATIC     ATOMS    COLORGROUP SYSTEM
2 22 23
@<TRIPOS>COMMENT
> <Gold.Version>
2022.3.0

> <Gold.Id.Protein>
unknown|3owp_clean|pdb

> <Gold.Protein.RotatedTorsions>
[ 3671 3662 3661 3659 ] final  -62.69 input   60.00 | X-H torsion
[ 3591 3582 3581 3579 ] final   34.70 input   60.01 | X-H torsion
[ 3859 3850 3849 3847 ] final  -45.58 input   60.02 | X-H torsion
[ 3132 3125 3123 3120 ] final   29.14 input   60.00 | X-H torsion
[ 5167 5158 5157 5155 ] final  104.02 input   60.02 | X-H torsion
[ 2604 2593 2592 2591 ] final  -99.75 input   59.97 | X-H torsion
[  607  600  598  595 ] final    3.26 input   60.04 | X-H torsion
[ 1933 1928 1927 1924 ] final -178.08 input   59.99 | X-H torsion
[ 3182 3173 3172 3170 ] final -127.93 input   60.01 | X-H torsion
[  625  620  619  616 ] final   25.17 input   60.02 | X-H torsion

> <Gold.Protein.ActiveResidues>
 LEU49   GLY50   THR51   GLY52   SER53   PHE54   GLY55   VAL79   LEU82   LYS83  
 GLN84   HIS87   THR88   GLY126  GLU127  MET128  PHE129  SER130  HIS131  LEU132 
 ARG133  ARG134  ILE135  GLY136  ARG137  ARG165  ASP166  LEU167  LYS168  PRO169 
 GLU170  ASN171  LEU172  LEU173  ASP184  GLY186  PHE187  TPO197  LEU198  CYS199 
 GLY200  THR201  PRO202  GLU203  TYR204  LEU205  ILE209  ILE210  VAL226  LEU227 
 TYR229  GLU230  ALA233  GLY234  TYR235  PRO236  PRO237  PHE238  PHE239  ALA240 
 ASP241  GLN242  PRO243  ILE244  GLN245  ILE246  TYR247  LYS249  ARG256  PHE257 
 PRO258  SER259  ASN326  PHE327  ASP328  ASP329  TYR330 

> <Gold.Protein.RotatedAtoms>
   20.2219  -12.8621    5.9507 H   0  0  0  0  0  0  0  0  0  0  0  0  # atno 607  bound_to 600 
   17.4764  -12.5635   -1.9235 H   0  0  0  0  0  0  0  0  0  0  0  0  # atno 625  bound_to 620 
   26.8403   -5.6971   12.2166 H   0  0  0  0  0  0  0  0  0  0  0  0  # atno 1933 bound_to 1928
   19.2404   -4.6499    1.6571 H   0  0  0  0  0  0  0  0  0  0  0  0  # atno 2604 bound_to 2593
   18.7356   -3.3976    0.6964 H   0  0  0  0  0  0  0  0  0  0  0  0  # atno 2605 bound_to 2593
   19.4843   -4.7121    0.0195 H   0  0  0  0  0  0  0  0  0  0  0  0  # atno 2606 bound_to 2593
   17.9202   -2.4169   -1.5924 H   0  0  0  0  0  0  0  0  0  0  0  0  # atno 3132 bound_to 3125
   21.4451    5.4634    3.7090 H   0  0  0  0  0  0  0  0  0  0  0  0  # atno 3182 bound_to 3173
   16.3946   13.5704    8.5471 H   0  0  0  0  0  0  0  0  0  0  0  0  # atno 3591 bound_to 3582
   16.9071   14.0733   11.4186 H   0  0  0  0  0  0  0  0  0  0  0  0  # atno 3671 bound_to 3662
   10.2630   -0.4813   -3.3067 H   0  0  0  0  0  0  0  0  0  0  0  0  # atno 3859 bound_to 3850
   23.0426  -10.4963    8.4019 H   0  0  0  0  0  0  0  0  0  0  0  0  # atno 5167 bound_to 5158
   16.5900   13.7477   12.9814 LP  0  0  0  0  0  0  0  0  0  0  0  0  # atno 5485 bound_to 3662
   15.3665   13.8856   11.9087 LP  0  0  0  0  0  0  0  0  0  0  0  0  # atno 5486 bound_to 3662
   15.4502   13.5885    7.2221 LP  0  0  0  0  0  0  0  0  0  0  0  0  # atno 5493 bound_to 3582
   16.3476   14.8975    7.6066 LP  0  0  0  0  0  0  0  0  0  0  0  0  # atno 5494 bound_to 3582
    8.7861   -1.1343   -3.1047 LP  0  0  0  0  0  0  0  0  0  0  0  0  # atno 5549 bound_to 3850
    9.6668   -0.6827   -1.8059 LP  0  0  0  0  0  0  0  0  0  0  0  0  # atno 5550 bound_to 3850
   17.5752   -3.0167   -0.1197 LP  0  0  0  0  0  0  0  0  0  0  0  0  # atno 5553 bound_to 3125
   18.8721   -2.0461   -0.3259 LP  0  0  0  0  0  0  0  0  0  0  0  0  # atno 5554 bound_to 3125
   23.7454  -10.1117    9.8180 LP  0  0  0  0  0  0  0  0  0  0  0  0  # atno 5563 bound_to 5158
   22.1176  -10.1376    9.6914 LP  0  0  0  0  0  0  0  0  0  0  0  0  # atno 5564 bound_to 5158
   20.0747  -13.9156    7.1821 LP  0  0  0  0  0  0  0  0  0  0  0  0  # atno 5571 bound_to 600 
   18.9619  -13.8912    5.9873 LP  0  0  0  0  0  0  0  0  0  0  0  0  # atno 5572 bound_to 600 
   26.1639   -4.7214   11.1042 LP  0  0  0  0  0  0  0  0  0  0  0  0  # atno 5573 bound_to 1928
   25.3639   -5.0683   12.4849 LP  0  0  0  0  0  0  0  0  0  0  0  0  # atno 5574 bound_to 1928
   22.1679    4.0056    3.6716 LP  0  0  0  0  0  0  0  0  0  0  0  0  # atno 5603 bound_to 3173
   20.7311    4.1884    4.4258 LP  0  0  0  0  0  0  0  0  0  0  0  0  # atno 5604 bound_to 3173
   16.5882  -11.3007   -1.4093 LP  0  0  0  0  0  0  0  0  0  0  0  0  # atno 5611 bound_to 620 
   16.2133  -12.0493   -2.8113 LP  0  0  0  0  0  0  0  0  0  0  0  0  # atno 5612 bound_to 620 

> <Gold.Score>
     Fitness  S(hb_ext) S(vdw_ext)  S(hb_int)    S(int)      intcor
     33.04       0.10      24.60       0.00      -0.89      -0.77

> <Gold.Goldscore.Fitness>
33.0362

> <Gold.Goldscore.Internal.Vdw>
-1.0769

> <Gold.Goldscore.Internal.Torsion>
-0.5798

> <Gold.Goldscore.External.Vdw>
24.5982

> <Gold.Goldscore.Internal.HBond>
0.0000

> <Gold.Goldscore.External.HBond>
0.1050

> <Gold.Goldscore.Internal.Correction>
-0.7653

> <Gold.Goldscore.Hbonds>
donor molecule, donor type, donor heavy atom, donor atom, acceptor molecule, acceptor atom, score
      L1  H     8    22       P1   571  0.05

> <Gold.Goldscore.Internal.Vdw.Weighted>
-1.0769

> <Gold.Goldscore.Internal.Torsion.Weighted>
-0.5798

> <Gold.Goldscore.External.Vdw.Weighted>
33.8225

> <Gold.Goldscore.Internal.HBond.Weighted>
0.0000

> <Gold.Goldscore.External.HBond.Weighted>
0.1050

> <Gold.Goldscore.Internal.Correction.Weighted>
-0.7653

> <Gold.Rescore>
     Score     S(PLP)   S(hbond)     S(cho)   S(metal)  DE(clash)   DE(tors)     intcor
     28.38     -30.63       0.00       0.00       0.00       0.00       1.12       ----

> <Gold.PLP.Fitness>
28.3845

> <Gold.PLP.PLP>
-30.6288

> <Gold.PLP.part.hbond>
0.0000

> <Gold.PLP.part.metal>
0.0000

> <Gold.PLP.part.buried>
-5.2637

> <Gold.PLP.part.nonpolar>
-26.7021

> <Gold.PLP.part.repulsive>
0.2975

> <Gold.PLP.ligand.clash>
0.0000

> <Gold.PLP.ligand.torsion>
1.1221

> <Gold.PLP.Chemscore.Hbond>
0.0000

> <Gold.PLP.Chemscore.CHOScore>
0.0000

> <Gold.PLP.Chemscore.Metal>
0.0000

> <Gold.PLP.Chemscore.Internal.Correction>
   9.000000E+99

