#       Name:                CT1002167954
#       Creating user name   hitesit
#       Creation time:       Sun Apr 16 20:15:56 2023


#       File generated by GOLD software.
#

@<TRIPOS>MOLECULE
CT1002167954|ligand_prepared|mol2|1|dock4
    29    30     1
SMALL
NO_CHARGES


@<TRIPOS>ATOM
      1 C1          19.8863 -10.0639  -2.1024 C.3            1 RES1               0.0000
      2 C2          20.9856 -11.0909  -1.7627 C.ar           1 RES1               0.0000
      3 C3          19.0180  -9.9371  -0.8541 C.2            1 RES1               0.0000
      4 C4          20.6086  -8.7786  -2.4909 C.2            1 RES1               0.0000
      5 C5          18.9849 -10.4823  -3.2873 C.3            1 RES1               0.0000
      6 C6          22.1863 -10.6808  -1.1911 C.ar           1 RES1               0.0000
      7 C7          20.8129 -12.4498  -2.0123 C.ar           1 RES1               0.0000
      8 N8          19.1445  -8.8019  -0.1090 N.am           1 RES1               0.0000
      9 O9          18.2626 -10.8367  -0.5071 O.2            1 RES1               0.0000
     10 N10         20.4558  -7.6855  -1.6788 N.am           1 RES1               0.0000
     11 O11         21.3221  -8.7074  -3.4840 O.2            1 RES1               0.0000
     12 C12         18.0604  -9.3776  -3.7742 C.3            1 RES1               0.0000
     13 C13         23.1773 -11.5962  -0.8775 C.ar           1 RES1               0.0000
     14 C14         21.8053 -13.3635  -1.6982 C.ar           1 RES1               0.0000
     15 C15         19.7812  -7.6478  -0.4889 C.2            1 RES1               0.0000
     16 C16         22.9874 -12.9380  -1.1304 C.ar           1 RES1               0.0000
     17 O17         19.7341  -6.6413   0.2125 O.2            1 RES1               0.0000
     18 H18         19.6229 -10.8017  -4.1206 H              1 RES1               0.0000
     19 H19         18.3767 -11.3426  -2.9817 H              1 RES1               0.0000
     20 H20         22.3548  -9.6286  -0.9870 H              1 RES1               0.0000
     21 H21         19.8915 -12.8072  -2.4594 H              1 RES1               0.0000
     22 H22         18.7273  -8.8120   0.8162 H              1 RES1               0.0000
     23 H23         20.8845  -6.8197  -1.9901 H              1 RES1               0.0000
     24 H24         17.4504  -9.7238  -4.6060 H              1 RES1               0.0000
     25 H25         17.3942  -9.0530  -2.9776 H              1 RES1               0.0000
     26 H26         18.6329  -8.5154  -4.1097 H              1 RES1               0.0000
     27 H27         24.1064 -11.2560  -0.4320 H              1 RES1               0.0000
     28 H28         21.6518 -14.4186  -1.8995 H              1 RES1               0.0000
     29 H29         23.7637 -13.6550  -0.8843 H              1 RES1               0.0000
@<TRIPOS>BOND
    1    1    2 1     
    2    1    3 1     
    3    1    4 1     
    4    1    5 1     
    5    2    6 ar    
    6    2    7 ar    
    7    3    8 1     
    8    3    9 2     
    9    4   10 1     
   10    4   11 2     
   11    5   12 1     
   12    5   18 1     
   13    5   19 1     
   14    6   13 ar    
   15    6   20 1     
   16    7   14 ar    
   17    7   21 1     
   18    8   15 1     
   19    8   22 1     
   20   10   15 1     
   21   10   23 1     
   22   12   24 1     
   23   12   25 1     
   24   12   26 1     
   25   13   16 ar    
   26   13   27 1     
   27   14   16 ar    
   28   14   28 1     
   29   15   17 2     
   30   16   29 1     
@<TRIPOS>SUBSTRUCTURE
      1 RES1           1
@<TRIPOS>SET
DONOR_HYDROGENS      STATIC     ATOMS    <user>   **** ""
2 22 23
ATOM$RED        STATIC     ATOMS    COLORGROUP SYSTEM
2 22 23
@<TRIPOS>COMMENT
> <Gold.Version>
2022.3.0

> <Gold.Id.Protein>
unknown|3owp_clean|pdb

> <Gold.Protein.RotatedTorsions>
[ 3671 3662 3661 3659 ] final  -85.55 input   60.00 | X-H torsion
[ 3591 3582 3581 3579 ] final  102.68 input   60.01 | X-H torsion
[ 3859 3850 3849 3847 ] final  -69.76 input   60.02 | X-H torsion
[ 3132 3125 3123 3120 ] final  -69.08 input   60.00 | X-H torsion
[ 5167 5158 5157 5155 ] final -102.39 input   60.02 | X-H torsion
[ 2604 2593 2592 2591 ] final -175.59 input   59.97 | X-H torsion
[  607  600  598  595 ] final  -54.00 input   60.04 | X-H torsion
[ 1933 1928 1927 1924 ] final  161.06 input   59.99 | X-H torsion
[ 3182 3173 3172 3170 ] final  -57.17 input   60.01 | X-H torsion
[  625  620  619  616 ] final  -49.45 input   60.02 | X-H torsion

> <Gold.Protein.ActiveResidues>
 LEU49   GLY50   THR51   GLY52   SER53   PHE54   GLY55   VAL79   LEU82   LYS83  
 GLN84   HIS87   THR88   GLY126  GLU127  MET128  PHE129  SER130  HIS131  LEU132 
 ARG133  ARG134  ILE135  GLY136  ARG137  ARG165  ASP166  LEU167  LYS168  PRO169 
 GLU170  ASN171  LEU172  LEU173  ASP184  GLY186  PHE187  TPO197  LEU198  CYS199 
 GLY200  THR201  PRO202  GLU203  TYR204  LEU205  ILE209  ILE210  VAL226  LEU227 
 TYR229  GLU230  ALA233  GLY234  TYR235  PRO236  PRO237  PHE238  PHE239  ALA240 
 ASP241  GLN242  PRO243  ILE244  GLN245  ILE246  TYR247  LYS249  ARG256  PHE257 
 PRO258  SER259  ASN326  PHE327  ASP328  ASP329  TYR330 

> <Gold.Protein.RotatedAtoms>
   20.5440  -13.1924    6.7202 H   0  0  0  0  0  0  0  0  0  0  0  0  # atno 607  bound_to 600 
   17.1572  -11.7163   -1.2392 H   0  0  0  0  0  0  0  0  0  0  0  0  # atno 625  bound_to 620 
   26.9566   -5.5912   11.9165 H   0  0  0  0  0  0  0  0  0  0  0  0  # atno 1933 bound_to 1928
   19.5936   -5.0858    0.6237 H   0  0  0  0  0  0  0  0  0  0  0  0  # atno 2604 bound_to 2593
   18.9147   -4.0091    1.6847 H   0  0  0  0  0  0  0  0  0  0  0  0  # atno 2605 bound_to 2593
   18.9519   -3.6645    0.0641 H   0  0  0  0  0  0  0  0  0  0  0  0  # atno 2606 bound_to 2593
   17.4139   -3.0530   -0.4339 H   0  0  0  0  0  0  0  0  0  0  0  0  # atno 3132 bound_to 3125
   20.6685    4.9528    4.2678 H   0  0  0  0  0  0  0  0  0  0  0  0  # atno 3182 bound_to 3173
   16.6664   14.5454    8.2799 H   0  0  0  0  0  0  0  0  0  0  0  0  # atno 3591 bound_to 3582
   17.1312   14.0290   11.7111 H   0  0  0  0  0  0  0  0  0  0  0  0  # atno 3671 bound_to 3662
    9.9956   -0.6122   -3.5621 H   0  0  0  0  0  0  0  0  0  0  0  0  # atno 3859 bound_to 3850
   22.4875  -10.0370   10.0756 H   0  0  0  0  0  0  0  0  0  0  0  0  # atno 5167 bound_to 5158
   16.2200   13.7170   13.0232 LP  0  0  0  0  0  0  0  0  0  0  0  0  # atno 5485 bound_to 3662
   15.5110   13.9610   11.5725 LP  0  0  0  0  0  0  0  0  0  0  0  0  # atno 5486 bound_to 3662
   15.8592   13.1456    8.0867 LP  0  0  0  0  0  0  0  0  0  0  0  0  # atno 5493 bound_to 3582
   15.6649   14.3587    7.0110 LP  0  0  0  0  0  0  0  0  0  0  0  0  # atno 5494 bound_to 3582
    8.7130   -1.1497   -2.7168 LP  0  0  0  0  0  0  0  0  0  0  0  0  # atno 5549 bound_to 3850
   10.0093   -0.5355   -1.9365 LP  0  0  0  0  0  0  0  0  0  0  0  0  # atno 5550 bound_to 3850
   18.7447   -2.2062   -0.0343 LP  0  0  0  0  0  0  0  0  0  0  0  0  # atno 5553 bound_to 3125
   18.2125   -2.2160   -1.5781 LP  0  0  0  0  0  0  0  0  0  0  0  0  # atno 5554 bound_to 3125
   22.5109  -10.4630    8.5055 LP  0  0  0  0  0  0  0  0  0  0  0  0  # atno 5563 bound_to 5158
   23.9114  -10.2491    9.3176 LP  0  0  0  0  0  0  0  0  0  0  0  0  # atno 5564 bound_to 5158
   19.3143  -14.2526    6.8291 LP  0  0  0  0  0  0  0  0  0  0  0  0  # atno 5571 bound_to 600 
   19.3979  -13.2217    5.5654 LP  0  0  0  0  0  0  0  0  0  0  0  0  # atno 5572 bound_to 600 
   25.8568   -4.6200   11.2136 LP  0  0  0  0  0  0  0  0  0  0  0  0  # atno 5573 bound_to 1928
   25.5537   -5.2764   12.6778 LP  0  0  0  0  0  0  0  0  0  0  0  0  # atno 5574 bound_to 1928
   22.0754    5.0722    3.4584 LP  0  0  0  0  0  0  0  0  0  0  0  0  # atno 5603 bound_to 3173
   21.6052    3.6357    4.0765 LP  0  0  0  0  0  0  0  0  0  0  0  0  # atno 5604 bound_to 3173
   16.0087  -11.5063   -2.3727 LP  0  0  0  0  0  0  0  0  0  0  0  0  # atno 5611 bound_to 620 
   17.1142  -12.6969   -2.5371 LP  0  0  0  0  0  0  0  0  0  0  0  0  # atno 5612 bound_to 620 

> <Gold.Score>
     Fitness  S(hb_ext) S(vdw_ext)  S(hb_int)    S(int)      intcor
     41.38      10.46      22.79       0.00      -0.42      -0.77

> <Gold.Goldscore.Fitness>
41.3785

> <Gold.Goldscore.Internal.Vdw>
-0.6754

> <Gold.Goldscore.Internal.Torsion>
-0.5174

> <Gold.Goldscore.External.Vdw>
22.7929

> <Gold.Goldscore.Internal.HBond>
0.0000

> <Gold.Goldscore.External.HBond>
10.4624

> <Gold.Goldscore.Internal.Correction>
-0.7686

> <Gold.Goldscore.Hbonds>
donor molecule, donor type, donor heavy atom, donor atom, acceptor molecule, acceptor atom, score
      P1  H  2593  2604       L1    17  1.00
      P1  H   615   621       L1     9  0.87
      P1  H   620   625       L1     9  0.57
      L1  H    10    23       P1  2561  0.27

> <Gold.Goldscore.Internal.Vdw.Weighted>
-0.6754

> <Gold.Goldscore.Internal.Torsion.Weighted>
-0.5174

> <Gold.Goldscore.External.Vdw.Weighted>
31.3403

> <Gold.Goldscore.Internal.HBond.Weighted>
0.0000

> <Gold.Goldscore.External.HBond.Weighted>
10.4624

> <Gold.Goldscore.Internal.Correction.Weighted>
-0.7686

> <Gold.Rescore>
     Score     S(PLP)   S(hbond)     S(cho)   S(metal)  DE(clash)   DE(tors)     intcor
     44.86     -36.90       3.21       0.00       0.00       0.00       0.83       ----

> <Gold.PLP.Fitness>
44.8566

> <Gold.PLP.PLP>
-36.8997

> <Gold.PLP.part.hbond>
-4.0000

> <Gold.PLP.part.metal>
0.0000

> <Gold.PLP.part.buried>
-0.7730

> <Gold.PLP.part.nonpolar>
-33.1452

> <Gold.PLP.part.repulsive>
0.3991

> <Gold.PLP.ligand.clash>
0.0000

> <Gold.PLP.ligand.torsion>
0.8304

> <Gold.PLP.Chemscore.Hbond>
3.2059

> <Gold.PLP.Chemscore.CHOScore>
0.0000

> <Gold.PLP.Chemscore.Metal>
0.0000

> <Gold.Chemscore.Hbonds>
donor molecule, donor type, donor heavy atom, donor atom, acceptor molecule, acceptor atom, score
      P1  H  2593  2604       L1    17  1.00
      P1  H   615   621       L1     9  0.84
      P1  H   620   625       L1     9  0.98

> <Gold.PLP.Chemscore.Internal.Correction>
   9.000000E+99

