#       Name:                CT1002167954
#       Creating user name   hitesit
#       Creation time:       Sun Apr 16 20:15:54 2023


#       File generated by GOLD software.
#

@<TRIPOS>MOLECULE
CT1002167954|ligand_prepared|mol2|1|dock3
    29    30     1
SMALL
NO_CHARGES


@<TRIPOS>ATOM
      1 C1          20.2893 -10.6063  -1.6374 C.3            1 RES1               0.0000
      2 C2          21.1893 -11.7398  -1.1045 C.ar           1 RES1               0.0000
      3 C3          19.3079 -10.2757  -0.5167 C.2            1 RES1               0.0000
      4 C4          21.2223  -9.4583  -2.0061 C.2            1 RES1               0.0000
      5 C5          19.4823 -10.9903  -2.8995 C.3            1 RES1               0.0000
      6 C6          21.0827 -13.0294  -1.6165 C.ar           1 RES1               0.0000
      7 C7          22.1309 -11.5110  -0.1047 C.ar           1 RES1               0.0000
      8 N8          19.5028  -9.1146   0.1716 N.am           1 RES1               0.0000
      9 O9          18.4004 -11.0411  -0.2155 O.2            1 RES1               0.0000
     10 N10         21.1288  -8.2976  -1.2838 N.am           1 RES1               0.0000
     11 O11         22.0491  -9.5541  -2.9048 O.2            1 RES1               0.0000
     12 C12         18.6968  -9.8351  -3.5000 C.3            1 RES1               0.0000
     13 C13         21.8902 -14.0526  -1.1483 C.ar           1 RES1               0.0000
     14 C14         22.9373 -12.5357   0.3623 C.ar           1 RES1               0.0000
     15 C15         20.3325  -8.0844  -0.1917 C.2            1 RES1               0.0000
     16 C16         22.8183 -13.8064  -0.1590 C.ar           1 RES1               0.0000
     17 O17         20.3439  -7.0314   0.4392 O.2            1 RES1               0.0000
     18 H18         20.1747 -11.3780  -3.6569 H              1 RES1               0.0000
     19 H19         18.7837 -11.7955  -2.6406 H              1 RES1               0.0000
     20 H20         20.3564 -13.2427  -2.3937 H              1 RES1               0.0000
     21 H21         22.2414 -10.5194   0.3209 H              1 RES1               0.0000
     22 H22         18.9836  -9.0019   1.0365 H              1 RES1               0.0000
     23 H23         21.7063  -7.5203  -1.5885 H              1 RES1               0.0000
     24 H24         18.1490 -10.1587  -4.3826 H              1 RES1               0.0000
     25 H25         17.9804  -9.4413  -2.7820 H              1 RES1               0.0000
     26 H26         19.3632  -9.0262  -3.7924 H              1 RES1               0.0000
     27 H27         21.7916 -15.0513  -1.5609 H              1 RES1               0.0000
     28 H28         23.6659 -12.3375   1.1415 H              1 RES1               0.0000
     29 H29         23.4510 -14.6081   0.2074 H              1 RES1               0.0000
@<TRIPOS>BOND
    1    1    2 1     
    2    1    3 1     
    3    1    4 1     
    4    1    5 1     
    5    2    6 ar    
    6    2    7 ar    
    7    3    8 1     
    8    3    9 2     
    9    4   10 1     
   10    4   11 2     
   11    5   12 1     
   12    5   18 1     
   13    5   19 1     
   14    6   13 ar    
   15    6   20 1     
   16    7   14 ar    
   17    7   21 1     
   18    8   15 1     
   19    8   22 1     
   20   10   15 1     
   21   10   23 1     
   22   12   24 1     
   23   12   25 1     
   24   12   26 1     
   25   13   16 ar    
   26   13   27 1     
   27   14   16 ar    
   28   14   28 1     
   29   15   17 2     
   30   16   29 1     
@<TRIPOS>SUBSTRUCTURE
      1 RES1           1
@<TRIPOS>SET
DONOR_HYDROGENS      STATIC     ATOMS    <user>   **** ""
2 22 23
ATOM$RED        STATIC     ATOMS    COLORGROUP SYSTEM
2 22 23
@<TRIPOS>COMMENT
> <Gold.Version>
2022.3.0

> <Gold.Id.Protein>
unknown|3owp_clean|pdb

> <Gold.Protein.RotatedTorsions>
[ 3671 3662 3661 3659 ] final   -0.74 input   60.00 | X-H torsion
[ 3591 3582 3581 3579 ] final -177.05 input   60.01 | X-H torsion
[ 3859 3850 3849 3847 ] final   36.16 input   60.02 | X-H torsion
[ 3132 3125 3123 3120 ] final -154.05 input   60.00 | X-H torsion
[ 5167 5158 5157 5155 ] final   78.21 input   60.02 | X-H torsion
[ 2604 2593 2592 2591 ] final -175.38 input   59.97 | X-H torsion
[  607  600  598  595 ] final   33.08 input   60.04 | X-H torsion
[ 1933 1928 1927 1924 ] final -136.40 input   59.99 | X-H torsion
[ 3182 3173 3172 3170 ] final -106.79 input   60.01 | X-H torsion
[  625  620  619  616 ] final  -61.38 input   60.02 | X-H torsion

> <Gold.Protein.ActiveResidues>
 LEU49   GLY50   THR51   GLY52   SER53   PHE54   GLY55   VAL79   LEU82   LYS83  
 GLN84   HIS87   THR88   GLY126  GLU127  MET128  PHE129  SER130  HIS131  LEU132 
 ARG133  ARG134  ILE135  GLY136  ARG137  ARG165  ASP166  LEU167  LYS168  PRO169 
 GLU170  ASN171  LEU172  LEU173  ASP184  GLY186  PHE187  TPO197  LEU198  CYS199 
 GLY200  THR201  PRO202  GLU203  TYR204  LEU205  ILE209  ILE210  VAL226  LEU227 
 TYR229  GLU230  ALA233  GLY234  TYR235  PRO236  PRO237  PHE238  PHE239  ALA240 
 ASP241  GLN242  PRO243  ILE244  GLN245  ILE246  TYR247  LYS249  ARG256  PHE257 
 PRO258  SER259  ASN326  PHE327  ASP328  ASP329  TYR330 

> <Gold.Protein.RotatedAtoms>
   19.8428  -12.9470    5.6658 H   0  0  0  0  0  0  0  0  0  0  0  0  # atno 607  bound_to 600 
   17.0176  -11.5808   -1.2372 H   0  0  0  0  0  0  0  0  0  0  0  0  # atno 625  bound_to 620 
   26.3544   -5.6939   12.6719 H   0  0  0  0  0  0  0  0  0  0  0  0  # atno 1933 bound_to 1928
   19.5935   -5.0865    0.6272 H   0  0  0  0  0  0  0  0  0  0  0  0  # atno 2604 bound_to 2593
   18.9133   -4.0061    1.6835 H   0  0  0  0  0  0  0  0  0  0  0  0  # atno 2605 bound_to 2593
   18.9534   -3.6668    0.0619 H   0  0  0  0  0  0  0  0  0  0  0  0  # atno 2606 bound_to 2593
   18.3628   -2.5353    0.2222 H   0  0  0  0  0  0  0  0  0  0  0  0  # atno 3132 bound_to 3125
   21.1481    5.4400    3.8801 H   0  0  0  0  0  0  0  0  0  0  0  0  # atno 3182 bound_to 3173
   16.0578   14.7919    7.2671 H   0  0  0  0  0  0  0  0  0  0  0  0  # atno 3591 bound_to 3582
   15.9604   14.0517   11.2372 H   0  0  0  0  0  0  0  0  0  0  0  0  # atno 3671 bound_to 3662
   10.1720   -0.4674   -2.0849 H   0  0  0  0  0  0  0  0  0  0  0  0  # atno 3859 bound_to 3850
   23.4415  -10.4653    8.5233 H   0  0  0  0  0  0  0  0  0  0  0  0  # atno 5167 bound_to 5158
   17.2176   13.9280   12.2634 LP  0  0  0  0  0  0  0  0  0  0  0  0  # atno 5485 bound_to 3662
   15.6917   13.7272   12.8093 LP  0  0  0  0  0  0  0  0  0  0  0  0  # atno 5486 bound_to 3662
   16.6006   13.9796    8.5685 LP  0  0  0  0  0  0  0  0  0  0  0  0  # atno 5493 bound_to 3582
   15.5362   13.2765    7.5490 LP  0  0  0  0  0  0  0  0  0  0  0  0  # atno 5494 bound_to 3582
    9.8044   -0.7037   -3.6525 LP  0  0  0  0  0  0  0  0  0  0  0  0  # atno 5549 bound_to 3850
    8.7402   -1.1273   -2.4886 LP  0  0  0  0  0  0  0  0  0  0  0  0  # atno 5550 bound_to 3850
   18.6385   -1.9836   -1.2836 LP  0  0  0  0  0  0  0  0  0  0  0  0  # atno 5553 bound_to 3125
   17.3631   -2.9600   -0.9894 LP  0  0  0  0  0  0  0  0  0  0  0  0  # atno 5554 bound_to 3125
   23.4352  -10.0352   10.0925 LP  0  0  0  0  0  0  0  0  0  0  0  0  # atno 5563 bound_to 5158
   22.0259  -10.2453    9.2946 LP  0  0  0  0  0  0  0  0  0  0  0  0  # atno 5564 bound_to 5158
   20.3946  -13.5705    7.0639 LP  0  0  0  0  0  0  0  0  0  0  0  0  # atno 5571 bound_to 600 
   19.0239  -14.1509    6.3924 LP  0  0  0  0  0  0  0  0  0  0  0  0  # atno 5572 bound_to 600 
   26.7224   -5.0771   11.2121 LP  0  0  0  0  0  0  0  0  0  0  0  0  # atno 5573 bound_to 1928
   25.2950   -4.7158   11.9183 LP  0  0  0  0  0  0  0  0  0  0  0  0  # atno 5574 bound_to 1928
   22.2684    4.3093    3.5403 LP  0  0  0  0  0  0  0  0  0  0  0  0  # atno 5603 bound_to 3173
   20.9295    3.9083    4.3849 LP  0  0  0  0  0  0  0  0  0  0  0  0  # atno 5604 bound_to 3173
   16.0193  -11.6338   -2.5211 LP  0  0  0  0  0  0  0  0  0  0  0  0  # atno 5611 bound_to 620 
   17.2442  -12.7059   -2.3907 LP  0  0  0  0  0  0  0  0  0  0  0  0  # atno 5612 bound_to 620 

> <Gold.Score>
     Fitness  S(hb_ext) S(vdw_ext)  S(hb_int)    S(int)      intcor
     42.13       8.18      25.20       0.00      -0.69      -0.77

> <Gold.Goldscore.Fitness>
42.1334

> <Gold.Goldscore.Internal.Vdw>
-1.0513

> <Gold.Goldscore.Internal.Torsion>
-0.4117

> <Gold.Goldscore.External.Vdw>
25.1970

> <Gold.Goldscore.Internal.HBond>
0.0000

> <Gold.Goldscore.External.HBond>
8.1820

> <Gold.Goldscore.Internal.Correction>
-0.7686

> <Gold.Goldscore.Hbonds>
donor molecule, donor type, donor heavy atom, donor atom, acceptor molecule, acceptor atom, score
      P1  H  2593  2604       L1    17  1.00
      P1  H   615   621       L1     9  0.47
      P1  H   620   625       L1     9  0.50
      L1  H    10    23       P1  2846  0.04

> <Gold.Goldscore.Internal.Vdw.Weighted>
-1.0513

> <Gold.Goldscore.Internal.Torsion.Weighted>
-0.4117

> <Gold.Goldscore.External.Vdw.Weighted>
34.6458

> <Gold.Goldscore.Internal.HBond.Weighted>
0.0000

> <Gold.Goldscore.External.HBond.Weighted>
8.1820

> <Gold.Goldscore.Internal.Correction.Weighted>
-0.7686

> <Gold.Rescore>
     Score     S(PLP)   S(hbond)     S(cho)   S(metal)  DE(clash)   DE(tors)     intcor
     45.53     -35.85       3.30       0.00       0.00       0.00       0.10       ----

> <Gold.PLP.Fitness>
45.5263

> <Gold.PLP.PLP>
-35.8471

> <Gold.PLP.part.hbond>
-4.0000

> <Gold.PLP.part.metal>
0.0000

> <Gold.PLP.part.buried>
-1.7410

> <Gold.PLP.part.nonpolar>
-31.4922

> <Gold.PLP.part.repulsive>
0.4183

> <Gold.PLP.ligand.clash>
0.0000

> <Gold.PLP.ligand.torsion>
0.1050

> <Gold.PLP.Chemscore.Hbond>
3.2964

> <Gold.PLP.Chemscore.CHOScore>
0.0000

> <Gold.PLP.Chemscore.Metal>
0.0000

> <Gold.Chemscore.Hbonds>
donor molecule, donor type, donor heavy atom, donor atom, acceptor molecule, acceptor atom, score
      L1  H    10    23       P1  2846  0.56
      P1  H  2593  2604       L1    17  1.00
      P1  H   615   621       L1     9  0.36
      P1  H   620   625       L1     9  1.00

> <Gold.PLP.Chemscore.Internal.Correction>
   9.000000E+99

