#       Name:                CT1002167954
#       Creating user name   hitesit
#       Creation time:       Sun Apr 16 20:16:03 2023


#       File generated by GOLD software.
#

@<TRIPOS>MOLECULE
CT1002167954|ligand_prepared|mol2|1|dock8
    29    30     1
SMALL
NO_CHARGES


@<TRIPOS>ATOM
      1 C1          20.2895  -9.0432  -3.1478 C.3            1 RES1               0.0000
      2 C2          21.1981 -10.2023  -2.6899 C.ar           1 RES1               0.0000
      3 C3          20.8682  -8.5407  -4.4672 C.2            1 RES1               0.0000
      4 C4          18.8845  -9.6234  -3.2656 C.2            1 RES1               0.0000
      5 C5          20.2362  -7.8605  -2.1527 C.3            1 RES1               0.0000
      6 C6          21.4382 -10.4224  -1.3369 C.ar           1 RES1               0.0000
      7 C7          21.7998 -11.0600  -3.6069 C.ar           1 RES1               0.0000
      8 N8          20.1955  -8.8527  -5.6118 N.am           1 RES1               0.0000
      9 O9          21.9200  -7.9141  -4.5062 O.2            1 RES1               0.0000
     10 N10         18.3174  -9.6846  -4.5115 N.am           1 RES1               0.0000
     11 O11         18.2698 -10.0434  -2.2929 O.2            1 RES1               0.0000
     12 C12         19.5752  -6.6132  -2.7178 C.3            1 RES1               0.0000
     13 C13         22.2482 -11.4640  -0.9156 C.ar           1 RES1               0.0000
     14 C14         22.6097 -12.1008  -3.1835 C.ar           1 RES1               0.0000
     15 C15         18.9213  -9.3538  -5.6940 C.2            1 RES1               0.0000
     16 C16         22.8341 -12.3040  -1.8385 C.ar           1 RES1               0.0000
     17 O17         18.3652  -9.4879  -6.7803 O.2            1 RES1               0.0000
     18 H18         19.6865  -8.1767  -1.2576 H              1 RES1               0.0000
     19 H19         21.2594  -7.6101  -1.8468 H              1 RES1               0.0000
     20 H20         20.9877  -9.7702  -0.5961 H              1 RES1               0.0000
     21 H21         21.6383 -10.9184  -4.6701 H              1 RES1               0.0000
     22 H22         20.6852  -8.6992  -6.4875 H              1 RES1               0.0000
     23 H23         17.3561 -10.0064  -4.5623 H              1 RES1               0.0000
     24 H24         19.5641  -5.8143  -1.9793 H              1 RES1               0.0000
     25 H25         20.1111  -6.2563  -3.5949 H              1 RES1               0.0000
     26 H26         18.5475  -6.8196  -3.0093 H              1 RES1               0.0000
     27 H27         22.4227 -11.6188   0.1440 H              1 RES1               0.0000
     28 H28         23.0692 -12.7591  -3.9133 H              1 RES1               0.0000
     29 H29         23.4682 -13.1201  -1.5082 H              1 RES1               0.0000
@<TRIPOS>BOND
    1    1    2 1     
    2    1    3 1     
    3    1    4 1     
    4    1    5 1     
    5    2    6 ar    
    6    2    7 ar    
    7    3    8 1     
    8    3    9 2     
    9    4   10 1     
   10    4   11 2     
   11    5   12 1     
   12    5   18 1     
   13    5   19 1     
   14    6   13 ar    
   15    6   20 1     
   16    7   14 ar    
   17    7   21 1     
   18    8   15 1     
   19    8   22 1     
   20   10   15 1     
   21   10   23 1     
   22   12   24 1     
   23   12   25 1     
   24   12   26 1     
   25   13   16 ar    
   26   13   27 1     
   27   14   16 ar    
   28   14   28 1     
   29   15   17 2     
   30   16   29 1     
@<TRIPOS>SUBSTRUCTURE
      1 RES1           1
@<TRIPOS>SET
DONOR_HYDROGENS      STATIC     ATOMS    <user>   **** ""
2 22 23
ATOM$RED        STATIC     ATOMS    COLORGROUP SYSTEM
2 22 23
@<TRIPOS>COMMENT
> <Gold.Version>
2022.3.0

> <Gold.Id.Protein>
unknown|3owp_clean|pdb

> <Gold.Protein.RotatedTorsions>
[ 3671 3662 3661 3659 ] final -153.82 input   60.00 | X-H torsion
[ 3591 3582 3581 3579 ] final  -14.76 input   60.01 | X-H torsion
[ 3859 3850 3849 3847 ] final   41.27 input   60.02 | X-H torsion
[ 3132 3125 3123 3120 ] final  -99.94 input   60.00 | X-H torsion
[ 5167 5158 5157 5155 ] final   64.67 input   60.02 | X-H torsion
[ 2604 2593 2592 2591 ] final  -89.98 input   59.97 | X-H torsion
[  607  600  598  595 ] final -115.59 input   60.04 | X-H torsion
[ 1933 1928 1927 1924 ] final -143.86 input   59.99 | X-H torsion
[ 3182 3173 3172 3170 ] final   78.87 input   60.01 | X-H torsion
[  625  620  619  616 ] final  -27.35 input   60.02 | X-H torsion

> <Gold.Protein.ActiveResidues>
 LEU49   GLY50   THR51   GLY52   SER53   PHE54   GLY55   VAL79   LEU82   LYS83  
 GLN84   HIS87   THR88   GLY126  GLU127  MET128  PHE129  SER130  HIS131  LEU132 
 ARG133  ARG134  ILE135  GLY136  ARG137  ARG165  ASP166  LEU167  LYS168  PRO169 
 GLU170  ASN171  LEU172  LEU173  ASP184  GLY186  PHE187  TPO197  LEU198  CYS199 
 GLY200  THR201  PRO202  GLU203  TYR204  LEU205  ILE209  ILE210  VAL226  LEU227 
 TYR229  GLU230  ALA233  GLY234  TYR235  PRO236  PRO237  PHE238  PHE239  ALA240 
 ASP241  GLN242  PRO243  ILE244  GLN245  ILE246  TYR247  LYS249  ARG256  PHE257 
 PRO258  SER259  ASN326  PHE327  ASP328  ASP329  TYR330 

> <Gold.Protein.RotatedAtoms>
   20.0882  -13.9026    7.1747 H   0  0  0  0  0  0  0  0  0  0  0  0  # atno 607  bound_to 600 
   17.3664  -11.9920   -1.3340 H   0  0  0  0  0  0  0  0  0  0  0  0  # atno 625  bound_to 620 
   26.4586   -5.7163   12.6131 H   0  0  0  0  0  0  0  0  0  0  0  0  # atno 1933 bound_to 1928
   19.1658   -4.5154    1.7109 H   0  0  0  0  0  0  0  0  0  0  0  0  # atno 2604 bound_to 2593
   18.7656   -3.4161    0.5373 H   0  0  0  0  0  0  0  0  0  0  0  0  # atno 2605 bound_to 2593
   19.5289   -4.8281    0.1248 H   0  0  0  0  0  0  0  0  0  0  0  0  # atno 2606 bound_to 2593
   17.6704   -2.9707   -0.0150 H   0  0  0  0  0  0  0  0  0  0  0  0  # atno 3132 bound_to 3125
   21.8205    3.6951    3.9388 H   0  0  0  0  0  0  0  0  0  0  0  0  # atno 3182 bound_to 3173
   15.8886   13.1564    8.1154 H   0  0  0  0  0  0  0  0  0  0  0  0  # atno 3591 bound_to 3582
   16.9789   13.8182   12.7296 H   0  0  0  0  0  0  0  0  0  0  0  0  # atno 3671 bound_to 3662
   10.1152   -0.4902   -2.0281 H   0  0  0  0  0  0  0  0  0  0  0  0  # atno 3859 bound_to 3850
   23.6175  -10.4312    8.6520 H   0  0  0  0  0  0  0  0  0  0  0  0  # atno 5167 bound_to 5158
   15.3917   13.7959   12.3697 LP  0  0  0  0  0  0  0  0  0  0  0  0  # atno 5485 bound_to 3662
   16.4926   14.0942   11.2010 LP  0  0  0  0  0  0  0  0  0  0  0  0  # atno 5486 bound_to 3662
   15.6444   14.3222    7.0066 LP  0  0  0  0  0  0  0  0  0  0  0  0  # atno 5493 bound_to 3582
   16.6628   14.5807    8.2567 LP  0  0  0  0  0  0  0  0  0  0  0  0  # atno 5494 bound_to 3582
    9.8773   -0.6700   -3.6279 LP  0  0  0  0  0  0  0  0  0  0  0  0  # atno 5549 bound_to 3850
    8.7244   -1.1381   -2.5704 LP  0  0  0  0  0  0  0  0  0  0  0  0  # atno 5550 bound_to 3850
   18.8941   -1.9972   -0.4650 LP  0  0  0  0  0  0  0  0  0  0  0  0  # atno 5553 bound_to 3125
   17.8047   -2.5078   -1.5691 LP  0  0  0  0  0  0  0  0  0  0  0  0  # atno 5554 bound_to 3125
   23.2303  -10.0115   10.1756 LP  0  0  0  0  0  0  0  0  0  0  0  0  # atno 5563 bound_to 5158
   22.0534  -10.3034    9.0818 LP  0  0  0  0  0  0  0  0  0  0  0  0  # atno 5564 bound_to 5158
   18.9603  -13.9035    6.0017 LP  0  0  0  0  0  0  0  0  0  0  0  0  # atno 5571 bound_to 600 
   20.2110  -12.8555    5.9351 LP  0  0  0  0  0  0  0  0  0  0  0  0  # atno 5572 bound_to 600 
   26.6379   -5.0041   11.1614 LP  0  0  0  0  0  0  0  0  0  0  0  0  # atno 5573 bound_to 1928
   25.2745   -4.7662   12.0282 LP  0  0  0  0  0  0  0  0  0  0  0  0  # atno 5574 bound_to 1928
   20.6201    4.7112    4.3579 LP  0  0  0  0  0  0  0  0  0  0  0  0  # atno 5603 bound_to 3173
   21.9010    5.2626    3.5082 LP  0  0  0  0  0  0  0  0  0  0  0  0  # atno 5604 bound_to 3173
   16.0743  -11.3268   -2.0660 LP  0  0  0  0  0  0  0  0  0  0  0  0  # atno 5611 bound_to 620 
   16.8379  -12.5988   -2.7483 LP  0  0  0  0  0  0  0  0  0  0  0  0  # atno 5612 bound_to 620 

> <Gold.Score>
     Fitness  S(hb_ext) S(vdw_ext)  S(hb_int)    S(int)      intcor
     32.07       0.17      23.69       0.00      -0.68      -0.77

> <Gold.Goldscore.Fitness>
32.0672

> <Gold.Goldscore.Internal.Vdw>
-0.8570

> <Gold.Goldscore.Internal.Torsion>
-0.5838

> <Gold.Goldscore.External.Vdw>
23.6888

> <Gold.Goldscore.Internal.HBond>
0.0000

> <Gold.Goldscore.External.HBond>
0.1705

> <Gold.Goldscore.Internal.Correction>
-0.7653

> <Gold.Goldscore.Hbonds>
donor molecule, donor type, donor heavy atom, donor atom, acceptor molecule, acceptor atom, score
      P1  H   615   621       L1    11  0.05
      L1  H     8    22       P1  2875  0.03

> <Gold.Goldscore.Internal.Vdw.Weighted>
-0.8570

> <Gold.Goldscore.Internal.Torsion.Weighted>
-0.5838

> <Gold.Goldscore.External.Vdw.Weighted>
32.5721

> <Gold.Goldscore.Internal.HBond.Weighted>
0.0000

> <Gold.Goldscore.External.HBond.Weighted>
0.1705

> <Gold.Goldscore.Internal.Correction.Weighted>
-0.7653

> <Gold.Rescore>
     Score     S(PLP)   S(hbond)     S(cho)   S(metal)  DE(clash)   DE(tors)     intcor
     37.53     -33.57       1.88       0.00       0.00       1.17       0.26       ----

> <Gold.PLP.Fitness>
37.5278

> <Gold.PLP.PLP>
-33.5667

> <Gold.PLP.part.hbond>
-2.4880

> <Gold.PLP.part.metal>
0.0000

> <Gold.PLP.part.buried>
-3.9182

> <Gold.PLP.part.nonpolar>
-28.4996

> <Gold.PLP.part.repulsive>
0.2993

> <Gold.PLP.ligand.clash>
1.1714

> <Gold.PLP.ligand.torsion>
0.2559

> <Gold.PLP.Chemscore.Hbond>
1.8814

> <Gold.PLP.Chemscore.CHOScore>
0.0000

> <Gold.PLP.Chemscore.Metal>
0.0000

> <Gold.Chemscore.Hbonds>
donor molecule, donor type, donor heavy atom, donor atom, acceptor molecule, acceptor atom, score
      P1  H   620   625       L1    11  0.03

> <Gold.PLP.Chemscore.Internal.Correction>
   9.000000E+99

