#       Name:                CT1002167954
#       Creating user name   hitesit
#       Creation time:       Sun Apr 16 20:15:51 2023


#       File generated by GOLD software.
#

@<TRIPOS>MOLECULE
CT1002167954|ligand_prepared|mol2|1|dock1
    29    30     1
SMALL
NO_CHARGES


@<TRIPOS>ATOM
      1 C1          19.8838  -9.4217  -3.0650 C.3            1 RES1               0.0000
      2 C2          18.6414  -9.3979  -3.9786 C.ar           1 RES1               0.0000
      3 C3          20.5947  -8.0878  -3.2737 C.2            1 RES1               0.0000
      4 C4          19.3664  -9.6356  -1.6468 C.2            1 RES1               0.0000
      5 C5          20.8757 -10.5630  -3.3889 C.3            1 RES1               0.0000
      6 C6          18.7721  -9.5446  -5.3563 C.ar           1 RES1               0.0000
      7 C7          17.3602  -9.2330  -3.4590 C.ar           1 RES1               0.0000
      8 N8          20.5031  -7.1604  -2.2781 N.am           1 RES1               0.0000
      9 O9          21.1935  -7.8386  -4.3128 O.2            1 RES1               0.0000
     10 N10         19.5368  -8.6213  -0.7413 N.am           1 RES1               0.0000
     11 O11         18.7978 -10.6668  -1.3098 O.2            1 RES1               0.0000
     12 C12         21.9737 -10.7340  -2.3509 C.3            1 RES1               0.0000
     13 C13         17.6620  -9.5300  -6.1844 C.ar           1 RES1               0.0000
     14 C14         16.2514  -9.2185  -4.2890 C.ar           1 RES1               0.0000
     15 C15         20.0542  -7.3815  -1.0009 C.2            1 RES1               0.0000
     16 C16         16.4010  -9.3674  -5.6514 C.ar           1 RES1               0.0000
     17 O17         20.1248  -6.5026  -0.1466 O.2            1 RES1               0.0000
     18 H18         20.3173 -11.5037  -3.4704 H              1 RES1               0.0000
     19 H19         21.3389 -10.3625  -4.3629 H              1 RES1               0.0000
     20 H20         19.7566  -9.6711  -5.7942 H              1 RES1               0.0000
     21 H21         17.2186  -9.1130  -2.3903 H              1 RES1               0.0000
     22 H22         20.7953  -6.2149  -2.5041 H              1 RES1               0.0000
     23 H23         19.2515  -8.8078   0.2148 H              1 RES1               0.0000
     24 H24         22.6417 -11.5474  -2.6265 H              1 RES1               0.0000
     25 H25         22.5653  -9.8252  -2.2618 H              1 RES1               0.0000
     26 H26         21.5498 -10.9596  -1.3746 H              1 RES1               0.0000
     27 H27         17.7852  -9.6462  -7.2561 H              1 RES1               0.0000
     28 H28         15.2609  -9.0897  -3.8652 H              1 RES1               0.0000
     29 H29         15.5315  -9.3564  -6.3003 H              1 RES1               0.0000
@<TRIPOS>BOND
    1    1    2 1     
    2    1    3 1     
    3    1    4 1     
    4    1    5 1     
    5    2    6 ar    
    6    2    7 ar    
    7    3    8 1     
    8    3    9 2     
    9    4   10 1     
   10    4   11 2     
   11    5   12 1     
   12    5   18 1     
   13    5   19 1     
   14    6   13 ar    
   15    6   20 1     
   16    7   14 ar    
   17    7   21 1     
   18    8   15 1     
   19    8   22 1     
   20   10   15 1     
   21   10   23 1     
   22   12   24 1     
   23   12   25 1     
   24   12   26 1     
   25   13   16 ar    
   26   13   27 1     
   27   14   16 ar    
   28   14   28 1     
   29   15   17 2     
   30   16   29 1     
@<TRIPOS>SUBSTRUCTURE
      1 RES1           1
@<TRIPOS>SET
DONOR_HYDROGENS      STATIC     ATOMS    <user>   **** ""
2 22 23
ATOM$RED        STATIC     ATOMS    COLORGROUP SYSTEM
2 22 23
@<TRIPOS>COMMENT
> <Gold.Version>
2022.3.0

> <Gold.Id.Protein>
unknown|3owp_clean|pdb

> <Gold.Protein.RotatedTorsions>
[ 3671 3662 3661 3659 ] final   31.49 input   60.00 | X-H torsion
[ 3591 3582 3581 3579 ] final  -72.76 input   60.01 | X-H torsion
[ 3859 3850 3849 3847 ] final -105.15 input   60.02 | X-H torsion
[ 3132 3125 3123 3120 ] final -111.74 input   60.00 | X-H torsion
[ 5167 5158 5157 5155 ] final   16.29 input   60.02 | X-H torsion
[ 2604 2593 2592 2591 ] final  167.53 input   59.97 | X-H torsion
[  607  600  598  595 ] final  176.69 input   60.04 | X-H torsion
[ 1933 1928 1927 1924 ] final  146.26 input   59.99 | X-H torsion
[ 3182 3173 3172 3170 ] final -147.78 input   60.01 | X-H torsion
[  625  620  619  616 ] final  -60.69 input   60.02 | X-H torsion

> <Gold.Protein.ActiveResidues>
 LEU49   GLY50   THR51   GLY52   SER53   PHE54   GLY55   VAL79   LEU82   LYS83  
 GLN84   HIS87   THR88   GLY126  GLU127  MET128  PHE129  SER130  HIS131  LEU132 
 ARG133  ARG134  ILE135  GLY136  ARG137  ARG165  ASP166  LEU167  LYS168  PRO169 
 GLU170  ASN171  LEU172  LEU173  ASP184  GLY186  PHE187  TPO197  LEU198  CYS199 
 GLY200  THR201  PRO202  GLU203  TYR204  LEU205  ILE209  ILE210  VAL226  LEU227 
 TYR229  GLU230  ALA233  GLY234  TYR235  PRO236  PRO237  PHE238  PHE239  ALA240 
 ASP241  GLN242  PRO243  ILE244  GLN245  ILE246  TYR247  LYS249  ARG256  PHE257 
 PRO258  SER259  ASN326  PHE327  ASP328  ASP329  TYR330 

> <Gold.Protein.RotatedAtoms>
   19.2177  -14.2431    6.7114 H   0  0  0  0  0  0  0  0  0  0  0  0  # atno 607  bound_to 600 
   17.0261  -11.5883   -1.2363 H   0  0  0  0  0  0  0  0  0  0  0  0  # atno 625  bound_to 620 
   26.9734   -5.4809   11.7029 H   0  0  0  0  0  0  0  0  0  0  0  0  # atno 1933 bound_to 1928
   19.5808   -4.9921    0.3593 H   0  0  0  0  0  0  0  0  0  0  0  0  # atno 2604 bound_to 2593
   19.0326   -4.2579    1.7400 H   0  0  0  0  0  0  0  0  0  0  0  0  # atno 2605 bound_to 2593
   18.8468   -3.5093    0.2732 H   0  0  0  0  0  0  0  0  0  0  0  0  # atno 2606 bound_to 2593
   17.8077   -2.9007    0.1004 H   0  0  0  0  0  0  0  0  0  0  0  0  # atno 3132 bound_to 3125
   21.7251    5.3737    3.5754 H   0  0  0  0  0  0  0  0  0  0  0  0  # atno 3182 bound_to 3173
   15.4769   13.4352    7.3560 H   0  0  0  0  0  0  0  0  0  0  0  0  # atno 3591 bound_to 3582
   15.5443   13.9670   11.5373 H   0  0  0  0  0  0  0  0  0  0  0  0  # atno 3671 bound_to 3662
    9.4872   -0.8443   -3.6694 H   0  0  0  0  0  0  0  0  0  0  0  0  # atno 3859 bound_to 3850
   23.9038  -10.2454    9.3388 H   0  0  0  0  0  0  0  0  0  0  0  0  # atno 5167 bound_to 5158
   17.1565   14.0253   11.7528 LP  0  0  0  0  0  0  0  0  0  0  0  0  # atno 5485 bound_to 3662
   16.1716   13.7151   13.0178 LP  0  0  0  0  0  0  0  0  0  0  0  0  # atno 5486 bound_to 3662
   16.2223   14.8791    7.4440 LP  0  0  0  0  0  0  0  0  0  0  0  0  # atno 5493 bound_to 3582
   16.4994   13.7431    8.5839 LP  0  0  0  0  0  0  0  0  0  0  0  0  # atno 5494 bound_to 3582
    8.8754   -1.0529   -2.1759 LP  0  0  0  0  0  0  0  0  0  0  0  0  # atno 5549 bound_to 3850
   10.3589   -0.3985   -2.3695 LP  0  0  0  0  0  0  0  0  0  0  0  0  # atno 5550 bound_to 3850
   18.8939   -1.9524   -0.6536 LP  0  0  0  0  0  0  0  0  0  0  0  0  # atno 5553 bound_to 3125
   17.6668   -2.6232   -1.4967 LP  0  0  0  0  0  0  0  0  0  0  0  0  # atno 5554 bound_to 3125
   22.4654  -10.0363   10.0698 LP  0  0  0  0  0  0  0  0  0  0  0  0  # atno 5563 bound_to 5158
   22.5299  -10.4658    8.4956 LP  0  0  0  0  0  0  0  0  0  0  0  0  # atno 5564 bound_to 5158
   19.5178  -13.1267    5.5662 LP  0  0  0  0  0  0  0  0  0  0  0  0  # atno 5571 bound_to 600 
   20.5301  -13.2893    6.8372 LP  0  0  0  0  0  0  0  0  0  0  0  0  # atno 5572 bound_to 600 
   25.6581   -4.5909   11.3500 LP  0  0  0  0  0  0  0  0  0  0  0  0  # atno 5573 bound_to 1928
   25.7356   -5.4166   12.7567 LP  0  0  0  0  0  0  0  0  0  0  0  0  # atno 5574 bound_to 1928
   21.9849    3.7869    3.8277 LP  0  0  0  0  0  0  0  0  0  0  0  0  # atno 5603 bound_to 3173
   20.6323    4.4974    4.4041 LP  0  0  0  0  0  0  0  0  0  0  0  0  # atno 5604 bound_to 3173
   16.0178  -11.6259   -2.5130 LP  0  0  0  0  0  0  0  0  0  0  0  0  # atno 5611 bound_to 620 
   17.2371  -12.7063   -2.3997 LP  0  0  0  0  0  0  0  0  0  0  0  0  # atno 5612 bound_to 620 

> <Gold.Score>
     Fitness  S(hb_ext) S(vdw_ext)  S(hb_int)    S(int)      intcor
     39.15      10.90      21.52       0.00      -1.34      -0.81

> <Gold.Goldscore.Fitness>
39.1500

> <Gold.Goldscore.Internal.Vdw>
-1.6291

> <Gold.Goldscore.Internal.Torsion>
-0.5146

> <Gold.Goldscore.External.Vdw>
21.5210

> <Gold.Goldscore.Internal.HBond>
0.0000

> <Gold.Goldscore.External.HBond>
10.8963

> <Gold.Goldscore.Internal.Correction>
-0.8059

> <Gold.Goldscore.Hbonds>
donor molecule, donor type, donor heavy atom, donor atom, acceptor molecule, acceptor atom, score
      P1  H  2593  2604       L1    17  1.00
      P1  H   615   621       L1    11  0.79
      P1  H   620   625       L1    11  0.05
      L1  H     8    22       P1  2561  0.53

> <Gold.Goldscore.Internal.Vdw.Weighted>
-1.6291

> <Gold.Goldscore.Internal.Torsion.Weighted>
-0.5146

> <Gold.Goldscore.External.Vdw.Weighted>
29.5914

> <Gold.Goldscore.Internal.HBond.Weighted>
0.0000

> <Gold.Goldscore.External.HBond.Weighted>
10.8963

> <Gold.Goldscore.Internal.Correction.Weighted>
-0.8059

> <Gold.Rescore>
     Score     S(PLP)   S(hbond)     S(cho)   S(metal)  DE(clash)   DE(tors)     intcor
     37.96     -29.12       3.56       0.00       0.00       0.00       0.93       ----

> <Gold.PLP.Fitness>
37.9556

> <Gold.PLP.PLP>
-29.1244

> <Gold.PLP.part.hbond>
-4.4591

> <Gold.PLP.part.metal>
0.0000

> <Gold.PLP.part.buried>
-3.5568

> <Gold.PLP.part.nonpolar>
-22.0644

> <Gold.PLP.part.repulsive>
0.4408

> <Gold.PLP.ligand.clash>
0.0000

> <Gold.PLP.ligand.torsion>
0.9307

> <Gold.PLP.Chemscore.Hbond>
3.5643

> <Gold.PLP.Chemscore.CHOScore>
0.0000

> <Gold.PLP.Chemscore.Metal>
0.0000

> <Gold.Chemscore.Hbonds>
donor molecule, donor type, donor heavy atom, donor atom, acceptor molecule, acceptor atom, score
      L1  H     8    22       P1  2561  1.00
      P1  H  2593  2604       L1    17  1.00
      P1  H   615   621       L1    11  0.83
      P1  H   620   625       L1    11  0.64

> <Gold.PLP.Chemscore.Internal.Correction>
   9.000000E+99

