#       Name:                CT1002167954
#       Creating user name   hitesit
#       Creation time:       Sun Apr 16 20:15:53 2023


#       File generated by GOLD software.
#

@<TRIPOS>MOLECULE
CT1002167954|ligand_prepared|mol2|1|dock2
    29    30     1
SMALL
NO_CHARGES


@<TRIPOS>ATOM
      1 C1          19.9148  -9.3823  -2.8159 C.3            1 RES1               0.0000
      2 C2          18.7205  -9.4083  -3.7914 C.ar           1 RES1               0.0000
      3 C3          20.6045  -8.0363  -3.0187 C.2            1 RES1               0.0000
      4 C4          19.3308  -9.5782  -1.4212 C.2            1 RES1               0.0000
      5 C5          20.9482 -10.5059  -3.0633 C.3            1 RES1               0.0000
      6 C6          17.4421  -9.0732  -3.3555 C.ar           1 RES1               0.0000
      7 C7          18.8817  -9.7620  -5.1284 C.ar           1 RES1               0.0000
      8 N8          20.4407  -7.0902  -2.0502 N.am           1 RES1               0.0000
      9 O9          21.2496  -7.7951  -4.0316 O.2            1 RES1               0.0000
     10 N10         19.4312  -8.5408  -0.5315 N.am           1 RES1               0.0000
     11 O11         18.7698 -10.6154  -1.0900 O.2            1 RES1               0.0000
     12 C12         21.9255 -10.7037  -1.9153 C.3            1 RES1               0.0000
     13 C13         16.3643  -9.0882  -4.2253 C.ar           1 RES1               0.0000
     14 C14         17.8024  -9.7767  -5.9965 C.ar           1 RES1               0.0000
     15 C15         19.9324  -7.2947  -0.7927 C.2            1 RES1               0.0000
     16 C16         16.5437  -9.4395  -5.5462 C.ar           1 RES1               0.0000
     17 O17         19.9389  -6.3962   0.0439 O.2            1 RES1               0.0000
     18 H18         20.4118 -11.4470  -3.2366 H              1 RES1               0.0000
     19 H19         21.5148 -10.2706  -3.9727 H              1 RES1               0.0000
     20 H20         17.2811  -8.7965  -2.3189 H              1 RES1               0.0000
     21 H21         19.8626 -10.0320  -5.5045 H              1 RES1               0.0000
     22 H22         20.7221  -6.1430  -2.2826 H              1 RES1               0.0000
     23 H23         19.1020  -8.7136   0.4130 H              1 RES1               0.0000
     24 H24         22.6281 -11.5033  -2.1403 H              1 RES1               0.0000
     25 H25         22.4942  -9.7945  -1.7318 H              1 RES1               0.0000
     26 H26         21.3978 -10.9639  -1.0000 H              1 RES1               0.0000
     27 H27         15.3754  -8.8234  -3.8656 H              1 RES1               0.0000
     28 H28         17.9482 -10.0544  -7.0351 H              1 RES1               0.0000
     29 H29         15.6993  -9.4509  -6.2275 H              1 RES1               0.0000
@<TRIPOS>BOND
    1    1    2 1     
    2    1    3 1     
    3    1    4 1     
    4    1    5 1     
    5    2    6 ar    
    6    2    7 ar    
    7    3    8 1     
    8    3    9 2     
    9    4   10 1     
   10    4   11 2     
   11    5   12 1     
   12    5   18 1     
   13    5   19 1     
   14    6   13 ar    
   15    6   20 1     
   16    7   14 ar    
   17    7   21 1     
   18    8   15 1     
   19    8   22 1     
   20   10   15 1     
   21   10   23 1     
   22   12   24 1     
   23   12   25 1     
   24   12   26 1     
   25   13   16 ar    
   26   13   27 1     
   27   14   16 ar    
   28   14   28 1     
   29   15   17 2     
   30   16   29 1     
@<TRIPOS>SUBSTRUCTURE
      1 RES1           1
@<TRIPOS>SET
DONOR_HYDROGENS      STATIC     ATOMS    <user>   **** ""
2 22 23
ATOM$RED        STATIC     ATOMS    COLORGROUP SYSTEM
2 22 23
@<TRIPOS>COMMENT
> <Gold.Version>
2022.3.0

> <Gold.Id.Protein>
unknown|3owp_clean|pdb

> <Gold.Protein.RotatedTorsions>
[ 3671 3662 3661 3659 ] final  -60.90 input   60.00 | X-H torsion
[ 3591 3582 3581 3579 ] final  144.39 input   60.01 | X-H torsion
[ 3859 3850 3849 3847 ] final   75.92 input   60.02 | X-H torsion
[ 3132 3125 3123 3120 ] final   -1.75 input   60.00 | X-H torsion
[ 5167 5158 5157 5155 ] final -146.28 input   60.02 | X-H torsion
[ 2604 2593 2592 2591 ] final  -65.08 input   59.97 | X-H torsion
[  607  600  598  595 ] final    0.73 input   60.04 | X-H torsion
[ 1933 1928 1927 1924 ] final  -59.31 input   59.99 | X-H torsion
[ 3182 3173 3172 3170 ] final  -27.28 input   60.01 | X-H torsion
[  625  620  619  616 ] final  -54.31 input   60.02 | X-H torsion

> <Gold.Protein.ActiveResidues>
 LEU49   GLY50   THR51   GLY52   SER53   PHE54   GLY55   VAL79   LEU82   LYS83  
 GLN84   HIS87   THR88   GLY126  GLU127  MET128  PHE129  SER130  HIS131  LEU132 
 ARG133  ARG134  ILE135  GLY136  ARG137  ARG165  ASP166  LEU167  LYS168  PRO169 
 GLU170  ASN171  LEU172  LEU173  ASP184  GLY186  PHE187  TPO197  LEU198  CYS199 
 GLY200  THR201  PRO202  GLU203  TYR204  LEU205  ILE209  ILE210  VAL226  LEU227 
 TYR229  GLU230  ALA233  GLY234  TYR235  PRO236  PRO237  PHE238  PHE239  ALA240 
 ASP241  GLN242  PRO243  ILE244  GLN245  ILE246  TYR247  LYS249  ARG256  PHE257 
 PRO258  SER259  ASN326  PHE327  ASP328  ASP329  TYR330 

> <Gold.Protein.RotatedAtoms>
   20.2495  -12.8634    5.9813 H   0  0  0  0  0  0  0  0  0  0  0  0  # atno 607  bound_to 600 
   17.1021  -11.6595   -1.2341 H   0  0  0  0  0  0  0  0  0  0  0  0  # atno 625  bound_to 620 
   25.3791   -5.0794   12.4953 H   0  0  0  0  0  0  0  0  0  0  0  0  # atno 1933 bound_to 1928
   18.9791   -4.1478    1.7257 H   0  0  0  0  0  0  0  0  0  0  0  0  # atno 2604 bound_to 2593
   18.8899   -3.5699    0.1752 H   0  0  0  0  0  0  0  0  0  0  0  0  # atno 2605 bound_to 2593
   19.5912   -5.0418    0.4722 H   0  0  0  0  0  0  0  0  0  0  0  0  # atno 2606 bound_to 2593
   17.5671   -2.7131   -1.4025 H   0  0  0  0  0  0  0  0  0  0  0  0  # atno 3132 bound_to 3125
   20.6377    4.4891    4.4000 H   0  0  0  0  0  0  0  0  0  0  0  0  # atno 3182 bound_to 3173
   16.4401   14.8743    7.7461 H   0  0  0  0  0  0  0  0  0  0  0  0  # atno 3591 bound_to 3582
   16.8848   14.0757   11.3996 H   0  0  0  0  0  0  0  0  0  0  0  0  # atno 3671 bound_to 3662
    9.6431   -0.6914   -1.8097 H   0  0  0  0  0  0  0  0  0  0  0  0  # atno 3859 bound_to 3850
   22.0655  -10.1816    9.5369 H   0  0  0  0  0  0  0  0  0  0  0  0  # atno 5167 bound_to 5158
   16.6179   13.7513   12.9720 LP  0  0  0  0  0  0  0  0  0  0  0  0  # atno 5485 bound_to 3662
   15.3611   13.8797   11.9372 LP  0  0  0  0  0  0  0  0  0  0  0  0  # atno 5486 bound_to 3662
   16.2967   13.4403    8.5019 LP  0  0  0  0  0  0  0  0  0  0  0  0  # atno 5493 bound_to 3582
   15.4552   13.7329    7.1333 LP  0  0  0  0  0  0  0  0  0  0  0  0  # atno 5494 bound_to 3582
   10.2817   -0.4743   -3.2908 LP  0  0  0  0  0  0  0  0  0  0  0  0  # atno 5549 bound_to 3850
    8.7956   -1.1311   -3.1275 LP  0  0  0  0  0  0  0  0  0  0  0  0  # atno 5550 bound_to 3850
   17.9349   -2.8323    0.1780 LP  0  0  0  0  0  0  0  0  0  0  0  0  # atno 5553 bound_to 3125
   18.8681   -1.9323   -0.8148 LP  0  0  0  0  0  0  0  0  0  0  0  0  # atno 5554 bound_to 3125
   23.2101  -10.4894    8.4224 LP  0  0  0  0  0  0  0  0  0  0  0  0  # atno 5563 bound_to 5158
   23.6374  -10.0769    9.9435 LP  0  0  0  0  0  0  0  0  0  0  0  0  # atno 5564 bound_to 5158
   20.0423  -13.9416    7.1823 LP  0  0  0  0  0  0  0  0  0  0  0  0  # atno 5571 bound_to 600 
   18.9665  -13.8640    5.9563 LP  0  0  0  0  0  0  0  0  0  0  0  0  # atno 5572 bound_to 600 
   26.8545   -5.6985   12.2006 LP  0  0  0  0  0  0  0  0  0  0  0  0  # atno 5573 bound_to 1928
   26.1457   -4.7137   11.1077 LP  0  0  0  0  0  0  0  0  0  0  0  0  # atno 5574 bound_to 1928
   21.7213    5.3833    3.5783 LP  0  0  0  0  0  0  0  0  0  0  0  0  # atno 5603 bound_to 3173
   21.9904    3.7914    3.8235 LP  0  0  0  0  0  0  0  0  0  0  0  0  # atno 5604 bound_to 3173
   16.0091  -11.5561   -2.4352 LP  0  0  0  0  0  0  0  0  0  0  0  0  # atno 5611 bound_to 620 
   17.1693  -12.7044   -2.4797 LP  0  0  0  0  0  0  0  0  0  0  0  0  # atno 5612 bound_to 620 

> <Gold.Score>
     Fitness  S(hb_ext) S(vdw_ext)  S(hb_int)    S(int)      intcor
     37.19      11.32      19.52       0.00      -0.97      -0.80

> <Gold.Goldscore.Fitness>
37.1899

> <Gold.Goldscore.Internal.Vdw>
-1.0822

> <Gold.Goldscore.Internal.Torsion>
-0.6898

> <Gold.Goldscore.External.Vdw>
19.5184

> <Gold.Goldscore.Internal.HBond>
0.0000

> <Gold.Goldscore.External.HBond>
11.3207

> <Gold.Goldscore.Internal.Correction>
-0.8033

> <Gold.Goldscore.Hbonds>
donor molecule, donor type, donor heavy atom, donor atom, acceptor molecule, acceptor atom, score
      P1  H  2593  2606       L1    17  1.00
      P1  H   615   621       L1    11  0.96
      P1  H   620   625       L1    11  0.16
      L1  H     8    22       P1  2561  0.51

> <Gold.Goldscore.Internal.Vdw.Weighted>
-1.0822

> <Gold.Goldscore.Internal.Torsion.Weighted>
-0.6898

> <Gold.Goldscore.External.Vdw.Weighted>
26.8378

> <Gold.Goldscore.Internal.HBond.Weighted>
0.0000

> <Gold.Goldscore.External.HBond.Weighted>
11.3207

> <Gold.Goldscore.Internal.Correction.Weighted>
-0.8033

> <Gold.Rescore>
     Score     S(PLP)   S(hbond)     S(cho)   S(metal)  DE(clash)   DE(tors)     intcor
     37.84     -29.93       3.56       0.00       0.00       0.00       1.39       ----

> <Gold.PLP.Fitness>
37.8368

> <Gold.PLP.PLP>
-29.9269

> <Gold.PLP.part.hbond>
-4.4434

> <Gold.PLP.part.metal>
0.0000

> <Gold.PLP.part.buried>
-4.2125

> <Gold.PLP.part.nonpolar>
-22.3375

> <Gold.PLP.part.repulsive>
0.4204

> <Gold.PLP.ligand.clash>
0.0000

> <Gold.PLP.ligand.torsion>
1.3911

> <Gold.PLP.Chemscore.Hbond>
3.5640

> <Gold.PLP.Chemscore.CHOScore>
0.0000

> <Gold.PLP.Chemscore.Metal>
0.0000

> <Gold.Chemscore.Hbonds>
donor molecule, donor type, donor heavy atom, donor atom, acceptor molecule, acceptor atom, score
      L1  H     8    22       P1  2561  1.00
      P1  H  2593  2606       L1    17  0.65
      P1  H   615   621       L1    11  1.00
      P1  H   620   625       L1    11  0.83

> <Gold.PLP.Chemscore.Internal.Correction>
   9.000000E+99

