#       Name:                CT1002167954
#       Creating user name   hitesit
#       Creation time:       Sun Apr 16 20:15:59 2023


#       File generated by GOLD software.
#

@<TRIPOS>MOLECULE
CT1002167954|ligand_prepared|mol2|1|dock6
    29    30     1
SMALL
NO_CHARGES


@<TRIPOS>ATOM
      1 C1          23.0270  -9.3090   2.3642 C.3            1 RES1               0.0000
      2 C2          23.1255 -10.8059   2.0061 C.ar           1 RES1               0.0000
      3 C3          23.6351  -8.5467   1.1905 C.2            1 RES1               0.0000
      4 C4          21.5472  -9.0216   2.5929 C.2            1 RES1               0.0000
      5 C5          23.7931  -8.9225   3.6507 C.3            1 RES1               0.0000
      6 C6          22.5474 -11.2947   0.8384 C.ar           1 RES1               0.0000
      7 C7          23.7924 -11.7081   2.8307 C.ar           1 RES1               0.0000
      8 N8          22.7822  -7.8864   0.3560 N.am           1 RES1               0.0000
      9 O9          24.8412  -8.5576   0.9777 O.2            1 RES1               0.0000
     10 N10         20.9147  -8.1763   1.7192 N.am           1 RES1               0.0000
     11 O11         20.9191  -9.5325   3.5120 O.2            1 RES1               0.0000
     12 C12         23.7664  -7.4332   3.9563 C.3            1 RES1               0.0000
     13 C13         22.6352 -12.6363   0.5056 C.ar           1 RES1               0.0000
     14 C14         23.8789 -13.0493   2.4961 C.ar           1 RES1               0.0000
     15 C15         21.4576  -7.6199   0.5932 C.2            1 RES1               0.0000
     16 C16         23.3013 -13.5143   1.3338 C.ar           1 RES1               0.0000
     17 O17         20.8094  -6.9133  -0.1733 O.2            1 RES1               0.0000
     18 H18         23.3561  -9.4648   4.4983 H              1 RES1               0.0000
     19 H19         24.8372  -9.2435   3.5498 H              1 RES1               0.0000
     20 H20         22.0171 -10.6192   0.1755 H              1 RES1               0.0000
     21 H21         24.2534 -11.3649   3.7507 H              1 RES1               0.0000
     22 H22         23.1645  -7.5607  -0.5260 H              1 RES1               0.0000
     23 H23         19.9498  -7.9399   1.9277 H              1 RES1               0.0000
     24 H24         24.3183  -7.2166   4.8686 H              1 RES1               0.0000
     25 H25         24.2164  -6.8648   3.1450 H              1 RES1               0.0000
     26 H26         22.7441  -7.0848   4.0879 H              1 RES1               0.0000
     27 H27         22.1778 -12.9975  -0.4096 H              1 RES1               0.0000
     28 H28         24.4035 -13.7369   3.1512 H              1 RES1               0.0000
     29 H29         23.3703 -14.5652   1.0726 H              1 RES1               0.0000
@<TRIPOS>BOND
    1    1    2 1     
    2    1    3 1     
    3    1    4 1     
    4    1    5 1     
    5    2    6 ar    
    6    2    7 ar    
    7    3    8 1     
    8    3    9 2     
    9    4   10 1     
   10    4   11 2     
   11    5   12 1     
   12    5   18 1     
   13    5   19 1     
   14    6   13 ar    
   15    6   20 1     
   16    7   14 ar    
   17    7   21 1     
   18    8   15 1     
   19    8   22 1     
   20   10   15 1     
   21   10   23 1     
   22   12   24 1     
   23   12   25 1     
   24   12   26 1     
   25   13   16 ar    
   26   13   27 1     
   27   14   16 ar    
   28   14   28 1     
   29   15   17 2     
   30   16   29 1     
@<TRIPOS>SUBSTRUCTURE
      1 RES1           1
@<TRIPOS>SET
DONOR_HYDROGENS      STATIC     ATOMS    <user>   **** ""
2 22 23
ATOM$RED        STATIC     ATOMS    COLORGROUP SYSTEM
2 22 23
@<TRIPOS>COMMENT
> <Gold.Version>
2022.3.0

> <Gold.Id.Protein>
unknown|3owp_clean|pdb

> <Gold.Protein.RotatedTorsions>
[ 3671 3662 3661 3659 ] final   94.12 input   60.00 | X-H torsion
[ 3591 3582 3581 3579 ] final   48.90 input   60.01 | X-H torsion
[ 3859 3850 3849 3847 ] final   93.12 input   60.02 | X-H torsion
[ 3132 3125 3123 3120 ] final   74.94 input   60.00 | X-H torsion
[ 5167 5158 5157 5155 ] final  102.33 input   60.02 | X-H torsion
[ 2604 2593 2592 2591 ] final  -51.39 input   59.97 | X-H torsion
[  607  600  598  595 ] final -164.49 input   60.04 | X-H torsion
[ 1933 1928 1927 1924 ] final  170.85 input   59.99 | X-H torsion
[ 3182 3173 3172 3170 ] final   15.12 input   60.01 | X-H torsion
[  625  620  619  616 ] final -148.60 input   60.02 | X-H torsion

> <Gold.Protein.ActiveResidues>
 LEU49   GLY50   THR51   GLY52   SER53   PHE54   GLY55   VAL79   LEU82   LYS83  
 GLN84   HIS87   THR88   GLY126  GLU127  MET128  PHE129  SER130  HIS131  LEU132 
 ARG133  ARG134  ILE135  GLY136  ARG137  ARG165  ASP166  LEU167  LYS168  PRO169 
 GLU170  ASN171  LEU172  LEU173  ASP184  GLY186  PHE187  TPO197  LEU198  CYS199 
 GLY200  THR201  PRO202  GLU203  TYR204  LEU205  ILE209  ILE210  VAL226  LEU227 
 TYR229  GLU230  ALA233  GLY234  TYR235  PRO236  PRO237  PHE238  PHE239  ALA240 
 ASP241  GLN242  PRO243  ILE244  GLN245  ILE246  TYR247  LYS249  ARG256  PHE257 
 PRO258  SER259  ASN326  PHE327  ASP328  ASP329  TYR330 

> <Gold.Protein.RotatedAtoms>
   19.4337  -14.2364    6.9283 H   0  0  0  0  0  0  0  0  0  0  0  0  # atno 607  bound_to 600 
   16.0710  -11.3407   -2.0823 H   0  0  0  0  0  0  0  0  0  0  0  0  # atno 625  bound_to 620 
   26.9150   -5.6490   12.0595 H   0  0  0  0  0  0  0  0  0  0  0  0  # atno 1933 bound_to 1928
   18.8882   -3.9498    1.6587 H   0  0  0  0  0  0  0  0  0  0  0  0  # atno 2604 bound_to 2593
   18.9810   -3.7114    0.0214 H   0  0  0  0  0  0  0  0  0  0  0  0  # atno 2605 bound_to 2593
   19.5910   -5.0983    0.6931 H   0  0  0  0  0  0  0  0  0  0  0  0  # atno 2606 bound_to 2593
   18.5140   -2.0406   -1.4012 H   0  0  0  0  0  0  0  0  0  0  0  0  # atno 3132 bound_to 3125
   20.9535    3.8905    4.3728 H   0  0  0  0  0  0  0  0  0  0  0  0  # atno 3182 bound_to 3173
   16.5108   13.7681    8.5782 H   0  0  0  0  0  0  0  0  0  0  0  0  # atno 3591 bound_to 3582
   15.4451   13.7731   12.4862 H   0  0  0  0  0  0  0  0  0  0  0  0  # atno 3671 bound_to 3662
    9.3881   -0.8061   -1.8237 H   0  0  0  0  0  0  0  0  0  0  0  0  # atno 3859 bound_to 3850
   23.0702  -10.4957    8.4045 H   0  0  0  0  0  0  0  0  0  0  0  0  # atno 5167 bound_to 5158
   16.3637   14.0904   11.1806 LP  0  0  0  0  0  0  0  0  0  0  0  0  # atno 5485 bound_to 3662
   17.0642   13.8451   12.6351 LP  0  0  0  0  0  0  0  0  0  0  0  0  # atno 5486 bound_to 3662
   15.4756   13.4134    7.3737 LP  0  0  0  0  0  0  0  0  0  0  0  0  # atno 5493 bound_to 3582
   16.2052   14.8735    7.4237 LP  0  0  0  0  0  0  0  0  0  0  0  0  # atno 5494 bound_to 3582
   10.3949   -0.4124   -3.0400 LP  0  0  0  0  0  0  0  0  0  0  0  0  # atno 5549 bound_to 3850
    8.9392   -1.0775   -3.3642 LP  0  0  0  0  0  0  0  0  0  0  0  0  # atno 5550 bound_to 3850
   17.3470   -3.0125   -0.8170 LP  0  0  0  0  0  0  0  0  0  0  0  0  # atno 5553 bound_to 3125
   18.5023   -2.4293    0.1788 LP  0  0  0  0  0  0  0  0  0  0  0  0  # atno 5554 bound_to 3125
   23.7293  -10.1057    9.8399 LP  0  0  0  0  0  0  0  0  0  0  0  0  # atno 5563 bound_to 5158
   22.1059  -10.1442    9.6669 LP  0  0  0  0  0  0  0  0  0  0  0  0  # atno 5564 bound_to 5158
   19.2850  -13.3279    5.5865 LP  0  0  0  0  0  0  0  0  0  0  0  0  # atno 5571 bound_to 600 
   20.5454  -13.0949    6.5983 LP  0  0  0  0  0  0  0  0  0  0  0  0  # atno 5572 bound_to 600 
   25.9990   -4.6593   11.1493 LP  0  0  0  0  0  0  0  0  0  0  0  0  # atno 5573 bound_to 1928
   25.4535   -5.1789   12.5981 LP  0  0  0  0  0  0  0  0  0  0  0  0  # atno 5574 bound_to 1928
   21.1217    5.4382    3.8984 LP  0  0  0  0  0  0  0  0  0  0  0  0  # atno 5603 bound_to 3173
   22.2721    4.3390    3.5309 LP  0  0  0  0  0  0  0  0  0  0  0  0  # atno 5604 bound_to 3173
   16.8542  -12.6070   -2.7389 LP  0  0  0  0  0  0  0  0  0  0  0  0  # atno 5611 bound_to 620 
   17.3625  -11.9745   -1.3218 LP  0  0  0  0  0  0  0  0  0  0  0  0  # atno 5612 bound_to 620 

> <Gold.Score>
     Fitness  S(hb_ext) S(vdw_ext)  S(hb_int)    S(int)      intcor
     33.64       2.37      22.81       0.00      -0.09      -0.77

> <Gold.Goldscore.Fitness>
33.6382

> <Gold.Goldscore.Internal.Vdw>
-0.4703

> <Gold.Goldscore.Internal.Torsion>
-0.3887

> <Gold.Goldscore.External.Vdw>
22.8107

> <Gold.Goldscore.Internal.HBond>
0.0000

> <Gold.Goldscore.External.HBond>
2.3672

> <Gold.Goldscore.Internal.Correction>
-0.7653

> <Gold.Goldscore.Hbonds>
donor molecule, donor type, donor heavy atom, donor atom, acceptor molecule, acceptor atom, score
      P1  H  2593  2606       L1    17  0.08
      L1  H     8    22       P1  2846  0.32

> <Gold.Goldscore.Internal.Vdw.Weighted>
-0.4703

> <Gold.Goldscore.Internal.Torsion.Weighted>
-0.3887

> <Gold.Goldscore.External.Vdw.Weighted>
31.3647

> <Gold.Goldscore.Internal.HBond.Weighted>
0.0000

> <Gold.Goldscore.External.HBond.Weighted>
2.3672

> <Gold.Goldscore.Internal.Correction.Weighted>
-0.7653

> <Gold.Rescore>
     Score     S(PLP)   S(hbond)     S(cho)   S(metal)  DE(clash)   DE(tors)     intcor
     24.62     -19.25       1.80       0.00       0.00       0.00       0.01       ----

> <Gold.PLP.Fitness>
24.6191

> <Gold.PLP.PLP>
-19.2466

> <Gold.PLP.part.hbond>
-2.7104

> <Gold.PLP.part.metal>
0.0000

> <Gold.PLP.part.buried>
-0.0180

> <Gold.PLP.part.nonpolar>
-25.6028

> <Gold.PLP.part.repulsive>
8.6098

> <Gold.PLP.ligand.clash>
0.0000

> <Gold.PLP.ligand.torsion>
0.0127

> <Gold.PLP.Chemscore.Hbond>
1.7993

> <Gold.PLP.Chemscore.CHOScore>
0.0000

> <Gold.PLP.Chemscore.Metal>
0.0000

> <Gold.Chemscore.Hbonds>
donor molecule, donor type, donor heavy atom, donor atom, acceptor molecule, acceptor atom, score
      L1  H     8    22       P1  2846  0.73
      P1  H  2593  2606       L1    17  0.37

> <Gold.PLP.Chemscore.Internal.Correction>
   9.000000E+99

