#       Name:                CT1002167954
#       Creating user name   hitesit
#       Creation time:       Sun Apr 16 20:16:06 2023


#       File generated by GOLD software.
#

@<TRIPOS>MOLECULE
CT1002167954|ligand_prepared|mol2|1|dock10
    29    30     1
SMALL
NO_CHARGES


@<TRIPOS>ATOM
      1 C1          24.6673 -10.0336   2.6323 C.3            1 RES1               0.0000
      2 C2          24.1320 -11.0480   1.6012 C.ar           1 RES1               0.0000
      3 C3          25.1171  -8.8114   1.8373 C.2            1 RES1               0.0000
      4 C4          23.5190  -9.7599   3.5973 C.2            1 RES1               0.0000
      5 C5          25.8689 -10.5540   3.4550 C.3            1 RES1               0.0000
      6 C6          23.8527 -10.6520   0.2966 C.ar           1 RES1               0.0000
      7 C7          23.9154 -12.3814   1.9383 C.ar           1 RES1               0.0000
      8 N8          24.3346  -7.6960   1.8965 N.am           1 RES1               0.0000
      9 O9          26.1220  -8.8387   1.1375 O.2            1 RES1               0.0000
     10 N10         22.9844  -8.4984   3.6178 N.am           1 RES1               0.0000
     11 O11         23.0612 -10.6298   4.3281 O.2            1 RES1               0.0000
     12 C12         26.4347  -9.5314   4.4279 C.3            1 RES1               0.0000
     13 C13         23.3769 -11.5567  -0.6379 C.ar           1 RES1               0.0000
     14 C14         23.4393 -13.2846   1.0023 C.ar           1 RES1               0.0000
     15 C15         23.3198  -7.4623   2.7893 C.2            1 RES1               0.0000
     16 C16         23.1703 -12.8735  -0.2859 C.ar           1 RES1               0.0000
     17 O17         22.7557  -6.3728   2.8319 O.2            1 RES1               0.0000
     18 H18         25.5535 -11.4407   4.0186 H              1 RES1               0.0000
     19 H19         26.6636 -10.8611   2.7639 H              1 RES1               0.0000
     20 H20         24.0068  -9.6193   0.0019 H              1 RES1               0.0000
     21 H21         24.1191 -12.7270   2.9462 H              1 RES1               0.0000
     22 H22         24.5213  -6.9684   1.2139 H              1 RES1               0.0000
     23 H23         22.2703  -8.3145   4.3155 H              1 RES1               0.0000
     24 H24         27.2753  -9.9475   4.9793 H              1 RES1               0.0000
     25 H25         26.7814  -8.6462   3.8988 H              1 RES1               0.0000
     26 H26         25.6780  -9.2224   5.1460 H              1 RES1               0.0000
     27 H27         23.1655 -11.2279  -1.6500 H              1 RES1               0.0000
     28 H28         23.2776 -14.3198   1.2838 H              1 RES1               0.0000
     29 H29         22.7980 -13.5822  -1.0183 H              1 RES1               0.0000
@<TRIPOS>BOND
    1    1    2 1     
    2    1    3 1     
    3    1    4 1     
    4    1    5 1     
    5    2    6 ar    
    6    2    7 ar    
    7    3    8 1     
    8    3    9 2     
    9    4   10 1     
   10    4   11 2     
   11    5   12 1     
   12    5   18 1     
   13    5   19 1     
   14    6   13 ar    
   15    6   20 1     
   16    7   14 ar    
   17    7   21 1     
   18    8   15 1     
   19    8   22 1     
   20   10   15 1     
   21   10   23 1     
   22   12   24 1     
   23   12   25 1     
   24   12   26 1     
   25   13   16 ar    
   26   13   27 1     
   27   14   16 ar    
   28   14   28 1     
   29   15   17 2     
   30   16   29 1     
@<TRIPOS>SUBSTRUCTURE
      1 RES1           1
@<TRIPOS>SET
DONOR_HYDROGENS      STATIC     ATOMS    <user>   **** ""
2 22 23
ATOM$RED        STATIC     ATOMS    COLORGROUP SYSTEM
2 22 23
@<TRIPOS>COMMENT
> <Gold.Version>
2022.3.0

> <Gold.Id.Protein>
unknown|3owp_clean|pdb

> <Gold.Protein.RotatedTorsions>
[ 3671 3662 3661 3659 ] final   -3.16 input   60.00 | X-H torsion
[ 3591 3582 3581 3579 ] final -162.29 input   60.01 | X-H torsion
[ 3859 3850 3849 3847 ] final   67.93 input   60.02 | X-H torsion
[ 3132 3125 3123 3120 ] final   85.57 input   60.00 | X-H torsion
[ 5167 5158 5157 5155 ] final  -80.15 input   60.02 | X-H torsion
[ 2604 2593 2592 2591 ] final  -23.04 input   59.97 | X-H torsion
[  607  600  598  595 ] final   95.77 input   60.04 | X-H torsion
[ 1933 1928 1927 1924 ] final  148.22 input   59.99 | X-H torsion
[ 3182 3173 3172 3170 ] final  124.39 input   60.01 | X-H torsion
[  625  620  619  616 ] final  119.94 input   60.02 | X-H torsion

> <Gold.Protein.ActiveResidues>
 LEU49   GLY50   THR51   GLY52   SER53   PHE54   GLY55   VAL79   LEU82   LYS83  
 GLN84   HIS87   THR88   GLY126  GLU127  MET128  PHE129  SER130  HIS131  LEU132 
 ARG133  ARG134  ILE135  GLY136  ARG137  ARG165  ASP166  LEU167  LYS168  PRO169 
 GLU170  ASN171  LEU172  LEU173  ASP184  GLY186  PHE187  TPO197  LEU198  CYS199 
 GLY200  THR201  PRO202  GLU203  TYR204  LEU205  ILE209  ILE210  VAL226  LEU227 
 TYR229  GLU230  ALA233  GLY234  TYR235  PRO236  PRO237  PHE238  PHE239  ALA240 
 ASP241  GLN242  PRO243  ILE244  GLN245  ILE246  TYR247  LYS249  ARG256  PHE257 
 PRO258  SER259  ASN326  PHE327  ASP328  ASP329  TYR330 

> <Gold.Protein.RotatedAtoms>
   19.0970  -13.5721    5.7057 H   0  0  0  0  0  0  0  0  0  0  0  0  # atno 607  bound_to 600 
   16.4860  -12.3522   -2.8582 H   0  0  0  0  0  0  0  0  0  0  0  0  # atno 625  bound_to 620 
   26.9744   -5.4970   11.7306 H   0  0  0  0  0  0  0  0  0  0  0  0  # atno 1933 bound_to 1928
   18.7528   -3.6060    1.3706 H   0  0  0  0  0  0  0  0  0  0  0  0  # atno 2604 bound_to 2593
   19.1943   -4.0913   -0.1511 H   0  0  0  0  0  0  0  0  0  0  0  0  # atno 2605 bound_to 2593
   19.5130   -5.0621    1.1537 H   0  0  0  0  0  0  0  0  0  0  0  0  # atno 2606 bound_to 2593
   18.6294   -1.9866   -1.2835 H   0  0  0  0  0  0  0  0  0  0  0  0  # atno 3132 bound_to 3125
   22.2329    4.1780    3.5895 H   0  0  0  0  0  0  0  0  0  0  0  0  # atno 3182 bound_to 3173
   15.9027   14.6637    7.1355 H   0  0  0  0  0  0  0  0  0  0  0  0  # atno 3591 bound_to 3582
   15.9977   14.0564   11.2247 H   0  0  0  0  0  0  0  0  0  0  0  0  # atno 3671 bound_to 3662
    9.7609   -0.6398   -1.8318 H   0  0  0  0  0  0  0  0  0  0  0  0  # atno 3859 bound_to 3850
   22.8272  -10.0065   10.1942 H   0  0  0  0  0  0  0  0  0  0  0  0  # atno 5167 bound_to 5158
   17.2103   13.9199   12.3017 LP  0  0  0  0  0  0  0  0  0  0  0  0  # atno 5485 bound_to 3662
   15.6615   13.7304   12.7835 LP  0  0  0  0  0  0  0  0  0  0  0  0  # atno 5486 bound_to 3662
   16.6593   14.2046    8.5011 LP  0  0  0  0  0  0  0  0  0  0  0  0  # atno 5493 bound_to 3582
   15.6337   13.1806    7.7488 LP  0  0  0  0  0  0  0  0  0  0  0  0  # atno 5494 bound_to 3582
   10.2066   -0.5123   -3.3917 LP  0  0  0  0  0  0  0  0  0  0  0  0  # atno 5549 bound_to 3850
    8.7519   -1.1451   -3.0043 LP  0  0  0  0  0  0  0  0  0  0  0  0  # atno 5550 bound_to 3850
   17.3621   -2.9621   -0.9836 LP  0  0  0  0  0  0  0  0  0  0  0  0  # atno 5553 bound_to 3125
   18.3710   -2.5340    0.2269 LP  0  0  0  0  0  0  0  0  0  0  0  0  # atno 5554 bound_to 3125
   22.2329  -10.3999    8.7316 LP  0  0  0  0  0  0  0  0  0  0  0  0  # atno 5563 bound_to 5158
   23.8471  -10.3429    8.9720 LP  0  0  0  0  0  0  0  0  0  0  0  0  # atno 5564 bound_to 5158
   20.4675  -12.9411    6.3152 LP  0  0  0  0  0  0  0  0  0  0  0  0  # atno 5571 bound_to 600 
   19.7021  -14.1508    7.1010 LP  0  0  0  0  0  0  0  0  0  0  0  0  # atno 5572 bound_to 600 
   25.6829   -4.5926   11.3295 LP  0  0  0  0  0  0  0  0  0  0  0  0  # atno 5573 bound_to 1928
   25.7097   -5.3988   12.7493 LP  0  0  0  0  0  0  0  0  0  0  0  0  # atno 5574 bound_to 1928
   20.8365    4.0164    4.4098 LP  0  0  0  0  0  0  0  0  0  0  0  0  # atno 5603 bound_to 3173
   21.2695    5.4714    3.8079 LP  0  0  0  0  0  0  0  0  0  0  0  0  # atno 5604 bound_to 3173
   17.5064  -12.3253   -1.5909 LP  0  0  0  0  0  0  0  0  0  0  0  0  # atno 5611 bound_to 620 
   16.2923  -11.2376   -1.6885 LP  0  0  0  0  0  0  0  0  0  0  0  0  # atno 5612 bound_to 620 

> <Gold.Score>
     Fitness  S(hb_ext) S(vdw_ext)  S(hb_int)    S(int)      intcor
     31.88       0.53      24.08       0.00      -1.76      -0.77

> <Gold.Goldscore.Fitness>
31.8781

> <Gold.Goldscore.Internal.Vdw>
-2.1446

> <Gold.Goldscore.Internal.Torsion>
-0.3781

> <Gold.Goldscore.External.Vdw>
24.0780

> <Gold.Goldscore.Internal.HBond>
0.0000

> <Gold.Goldscore.External.HBond>
0.5283

> <Gold.Goldscore.Internal.Correction>
-0.7653

> <Gold.Goldscore.Hbonds>
donor molecule, donor type, donor heavy atom, donor atom, acceptor molecule, acceptor atom, score
      L1  H     8    22       P1  2643  0.26

> <Gold.Goldscore.Internal.Vdw.Weighted>
-2.1446

> <Gold.Goldscore.Internal.Torsion.Weighted>
-0.3781

> <Gold.Goldscore.External.Vdw.Weighted>
33.1073

> <Gold.Goldscore.Internal.HBond.Weighted>
0.0000

> <Gold.Goldscore.External.HBond.Weighted>
0.5283

> <Gold.Goldscore.Internal.Correction.Weighted>
-0.7653

> <Gold.Rescore>
     Score     S(PLP)   S(hbond)     S(cho)   S(metal)  DE(clash)   DE(tors)     intcor
     31.58     -31.75       0.67       0.00       0.00       1.98       0.10       ----

> <Gold.PLP.Fitness>
31.5795

> <Gold.PLP.PLP>
-31.7484

> <Gold.PLP.part.hbond>
-2.0000

> <Gold.PLP.part.metal>
0.0000

> <Gold.PLP.part.buried>
-3.3247

> <Gold.PLP.part.nonpolar>
-29.1140

> <Gold.PLP.part.repulsive>
1.8668

> <Gold.PLP.ligand.clash>
1.9779

> <Gold.PLP.ligand.torsion>
0.1035

> <Gold.PLP.Chemscore.Hbond>
0.6720

> <Gold.PLP.Chemscore.CHOScore>
0.0000

> <Gold.PLP.Chemscore.Metal>
0.0000

> <Gold.Chemscore.Hbonds>
donor molecule, donor type, donor heavy atom, donor atom, acceptor molecule, acceptor atom, score
      L1  H     8    22       P1  2643  0.85
      P1  H   594   602       L1    11  0.04

> <Gold.PLP.Chemscore.Internal.Correction>
   9.000000E+99

