#       Name:                CT1002167954
#       Creating user name   hitesit
#       Creation time:       Sun Apr 16 20:15:57 2023


#       File generated by GOLD software.
#

@<TRIPOS>MOLECULE
CT1002167954|ligand_prepared|mol2|1|dock5
    29    30     1
SMALL
NO_CHARGES


@<TRIPOS>ATOM
      1 C1          19.3743  -8.8411   0.0223 C.3            1 RES1               0.0000
      2 C2          20.6609  -9.5629   0.4721 C.ar           1 RES1               0.0000
      3 C3          19.7862  -7.4173  -0.3402 C.2            1 RES1               0.0000
      4 C4          18.8208  -9.6458  -1.1485 C.2            1 RES1               0.0000
      5 C5          18.2815  -8.7733   1.1144 C.3            1 RES1               0.0000
      6 C6          21.1470  -9.4040   1.7664 C.ar           1 RES1               0.0000
      7 C7          21.3698 -10.3917  -0.3935 C.ar           1 RES1               0.0000
      8 N8          19.8311  -7.0901  -1.6634 N.am           1 RES1               0.0000
      9 O9          20.1051  -6.6058   0.5199 O.2            1 RES1               0.0000
     10 N10         18.7974  -9.0507  -2.3827 N.am           1 RES1               0.0000
     11 O11         18.4201 -10.7957  -1.0167 O.2            1 RES1               0.0000
     12 C12         16.9410  -8.2628   0.6097 C.3            1 RES1               0.0000
     13 C13         22.2984 -10.0523   2.1813 C.ar           1 RES1               0.0000
     14 C14         22.5212 -11.0389   0.0234 C.ar           1 RES1               0.0000
     15 C15         19.3058  -7.8204  -2.6990 C.2            1 RES1               0.0000
     16 C16         22.9860 -10.8704   1.3104 C.ar           1 RES1               0.0000
     17 O17         19.2969  -7.3758  -3.8433 O.2            1 RES1               0.0000
     18 H18         18.1413  -9.7761   1.5364 H              1 RES1               0.0000
     19 H19         18.6287  -8.1157   1.9209 H              1 RES1               0.0000
     20 H20         20.6207  -8.7622   2.4650 H              1 RES1               0.0000
     21 H21         21.0233 -10.5382  -1.4109 H              1 RES1               0.0000
     22 H22         20.2984  -6.2221  -1.9053 H              1 RES1               0.0000
     23 H23         18.3603  -9.5732  -3.1352 H              1 RES1               0.0000
     24 H24         16.2106  -8.2350   1.4155 H              1 RES1               0.0000
     25 H25         17.0385  -7.2572   0.2058 H              1 RES1               0.0000
     26 H26         16.5539  -8.9078  -0.1765 H              1 RES1               0.0000
     27 H27         22.6608  -9.9153   3.1948 H              1 RES1               0.0000
     28 H28         23.0595 -11.6814  -0.6655 H              1 RES1               0.0000
     29 H29         23.8878 -11.3785   1.6358 H              1 RES1               0.0000
@<TRIPOS>BOND
    1    1    2 1     
    2    1    3 1     
    3    1    4 1     
    4    1    5 1     
    5    2    6 ar    
    6    2    7 ar    
    7    3    8 1     
    8    3    9 2     
    9    4   10 1     
   10    4   11 2     
   11    5   12 1     
   12    5   18 1     
   13    5   19 1     
   14    6   13 ar    
   15    6   20 1     
   16    7   14 ar    
   17    7   21 1     
   18    8   15 1     
   19    8   22 1     
   20   10   15 1     
   21   10   23 1     
   22   12   24 1     
   23   12   25 1     
   24   12   26 1     
   25   13   16 ar    
   26   13   27 1     
   27   14   16 ar    
   28   14   28 1     
   29   15   17 2     
   30   16   29 1     
@<TRIPOS>SUBSTRUCTURE
      1 RES1           1
@<TRIPOS>SET
DONOR_HYDROGENS      STATIC     ATOMS    <user>   **** ""
2 22 23
ATOM$RED        STATIC     ATOMS    COLORGROUP SYSTEM
2 22 23
@<TRIPOS>COMMENT
> <Gold.Version>
2022.3.0

> <Gold.Id.Protein>
unknown|3owp_clean|pdb

> <Gold.Protein.RotatedTorsions>
[ 3671 3662 3661 3659 ] final -137.98 input   60.00 | X-H torsion
[ 3591 3582 3581 3579 ] final   -7.12 input   60.01 | X-H torsion
[ 3859 3850 3849 3847 ] final  144.46 input   60.02 | X-H torsion
[ 3132 3125 3123 3120 ] final    6.77 input   60.00 | X-H torsion
[ 5167 5158 5157 5155 ] final  -71.27 input   60.02 | X-H torsion
[ 2604 2593 2592 2591 ] final   74.64 input   59.97 | X-H torsion
[  607  600  598  595 ] final  109.80 input   60.04 | X-H torsion
[ 1933 1928 1927 1924 ] final -111.34 input   59.99 | X-H torsion
[ 3182 3173 3172 3170 ] final -114.57 input   60.01 | X-H torsion
[  625  620  619  616 ] final  -47.91 input   60.02 | X-H torsion

> <Gold.Protein.ActiveResidues>
 LEU49   GLY50   THR51   GLY52   SER53   PHE54   GLY55   VAL79   LEU82   LYS83  
 GLN84   HIS87   THR88   GLY126  GLU127  MET128  PHE129  SER130  HIS131  LEU132 
 ARG133  ARG134  ILE135  GLY136  ARG137  ARG165  ASP166  LEU167  LYS168  PRO169 
 GLU170  ASN171  LEU172  LEU173  ASP184  GLY186  PHE187  TPO197  LEU198  CYS199 
 GLY200  THR201  PRO202  GLU203  TYR204  LEU205  ILE209  ILE210  VAL226  LEU227 
 TYR229  GLU230  ALA233  GLY234  TYR235  PRO236  PRO237  PHE238  PHE239  ALA240 
 ASP241  GLN242  PRO243  ILE244  GLN245  ILE246  TYR247  LYS249  ARG256  PHE257 
 PRO258  SER259  ASN326  PHE327  ASP328  ASP329  TYR330 

> <Gold.Protein.RotatedAtoms>
   19.0102  -13.7397    5.8348 H   0  0  0  0  0  0  0  0  0  0  0  0  # atno 607  bound_to 600 
   17.1741  -11.7348   -1.2420 H   0  0  0  0  0  0  0  0  0  0  0  0  # atno 625  bound_to 620 
   25.9864   -5.5562   12.7741 H   0  0  0  0  0  0  0  0  0  0  0  0  # atno 1933 bound_to 1928
   19.0245   -3.7840   -0.0328 H   0  0  0  0  0  0  0  0  0  0  0  0  # atno 2604 bound_to 2593
   19.5829   -5.1080    0.7926 H   0  0  0  0  0  0  0  0  0  0  0  0  # atno 2605 bound_to 2593
   18.8526   -3.8670    1.6131 H   0  0  0  0  0  0  0  0  0  0  0  0  # atno 2606 bound_to 2593
   17.6524   -2.6342   -1.4789 H   0  0  0  0  0  0  0  0  0  0  0  0  # atno 3132 bound_to 3125
   21.2547    5.4630    3.8150 H   0  0  0  0  0  0  0  0  0  0  0  0  # atno 3182 bound_to 3173
   15.9679   13.1838    8.2079 H   0  0  0  0  0  0  0  0  0  0  0  0  # atno 3591 bound_to 3582
   17.1250   13.8680   12.5229 H   0  0  0  0  0  0  0  0  0  0  0  0  # atno 3671 bound_to 3662
    8.8058   -1.0882   -2.3129 H   0  0  0  0  0  0  0  0  0  0  0  0  # atno 3859 bound_to 3850
   22.9716  -10.0044   10.2048 H   0  0  0  0  0  0  0  0  0  0  0  0  # atno 5167 bound_to 5158
   15.5031   13.7569   12.6010 LP  0  0  0  0  0  0  0  0  0  0  0  0  # atno 5485 bound_to 3662
   16.2342   14.0831   11.1778 LP  0  0  0  0  0  0  0  0  0  0  0  0  # atno 5486 bound_to 3662
   15.5884   14.2097    7.0031 LP  0  0  0  0  0  0  0  0  0  0  0  0  # atno 5493 bound_to 3582
   16.6390   14.6657    8.1671 LP  0  0  0  0  0  0  0  0  0  0  0  0  # atno 5494 bound_to 3582
   10.2890   -0.4236   -2.2302 LP  0  0  0  0  0  0  0  0  0  0  0  0  # atno 5549 bound_to 3850
    9.6316   -0.7822   -3.6813 LP  0  0  0  0  0  0  0  0  0  0  0  0  # atno 5550 bound_to 3850
   17.8255   -2.8956    0.1178 LP  0  0  0  0  0  0  0  0  0  0  0  0  # atno 5553 bound_to 3125
   18.8915   -1.9483   -0.6778 LP  0  0  0  0  0  0  0  0  0  0  0  0  # atno 5554 bound_to 3125
   22.1508  -10.3678    8.8478 LP  0  0  0  0  0  0  0  0  0  0  0  0  # atno 5563 bound_to 5158
   23.7837  -10.3772    8.8452 LP  0  0  0  0  0  0  0  0  0  0  0  0  # atno 5564 bound_to 5158
   20.3606  -12.8782    6.1211 LP  0  0  0  0  0  0  0  0  0  0  0  0  # atno 5571 bound_to 600 
   19.8963  -14.0449    7.1651 LP  0  0  0  0  0  0  0  0  0  0  0  0  # atno 5572 bound_to 600 
   26.9253   -5.3259   11.4655 LP  0  0  0  0  0  0  0  0  0  0  0  0  # atno 5573 bound_to 1928
   25.4629   -4.6058   11.5618 LP  0  0  0  0  0  0  0  0  0  0  0  0  # atno 5574 bound_to 1928
   22.2438    4.1914    3.5832 LP  0  0  0  0  0  0  0  0  0  0  0  0  # atno 5603 bound_to 3173
   20.8468    4.0030    4.4074 LP  0  0  0  0  0  0  0  0  0  0  0  0  # atno 5604 bound_to 3173
   16.0097  -11.4912   -2.3523 LP  0  0  0  0  0  0  0  0  0  0  0  0  # atno 5611 bound_to 620 
   17.0961  -12.6934   -2.5546 LP  0  0  0  0  0  0  0  0  0  0  0  0  # atno 5612 bound_to 620 

> <Gold.Score>
     Fitness  S(hb_ext) S(vdw_ext)  S(hb_int)    S(int)      intcor
     29.91      11.92      13.75       0.00      -0.93      -0.77

> <Gold.Goldscore.Fitness>
29.9065

> <Gold.Goldscore.Internal.Vdw>
-1.1957

> <Gold.Goldscore.Internal.Torsion>
-0.4954

> <Gold.Goldscore.External.Vdw>
13.7517

> <Gold.Goldscore.Internal.HBond>
0.0000

> <Gold.Goldscore.External.HBond>
11.9236

> <Gold.Goldscore.Internal.Correction>
-0.7653

> <Gold.Goldscore.Hbonds>
donor molecule, donor type, donor heavy atom, donor atom, acceptor molecule, acceptor atom, score
      P1  H  2593  2605       L1     9  0.87
      P1  H   615   621       L1    11  1.00
      P1  H   620   625       L1    11  0.46
      L1  H     8    22       P1  2561  0.63

> <Gold.Goldscore.Internal.Vdw.Weighted>
-1.1957

> <Gold.Goldscore.Internal.Torsion.Weighted>
-0.4954

> <Gold.Goldscore.External.Vdw.Weighted>
18.9086

> <Gold.Goldscore.Internal.HBond.Weighted>
0.0000

> <Gold.Goldscore.External.HBond.Weighted>
11.9236

> <Gold.Goldscore.Internal.Correction.Weighted>
-0.7653

> <Gold.Rescore>
     Score     S(PLP)   S(hbond)     S(cho)   S(metal)  DE(clash)   DE(tors)     intcor
     29.08     -24.06       2.28       0.00       0.00       0.00       0.90       ----

> <Gold.PLP.Fitness>
29.0820

> <Gold.PLP.PLP>
-24.0595

> <Gold.PLP.part.hbond>
-2.1294

> <Gold.PLP.part.metal>
0.0000

> <Gold.PLP.part.buried>
-4.8594

> <Gold.PLP.part.nonpolar>
-18.1351

> <Gold.PLP.part.repulsive>
0.7824

> <Gold.PLP.ligand.clash>
0.0000

> <Gold.PLP.ligand.torsion>
0.9031

> <Gold.PLP.Chemscore.Hbond>
2.2763

> <Gold.PLP.Chemscore.CHOScore>
0.0000

> <Gold.PLP.Chemscore.Metal>
0.0000

> <Gold.Chemscore.Hbonds>
donor molecule, donor type, donor heavy atom, donor atom, acceptor molecule, acceptor atom, score
      L1  H     8    22       P1  2561  0.41
      P1  H  2593  2605       L1     9  1.00
      P1  H   615   621       L1    11  1.00
      P1  H   620   625       L1    11  0.90

> <Gold.PLP.Chemscore.Internal.Correction>
   9.000000E+99

