#       Name:                GA Fitting Points
#       Creating user name   hitesit
#       Creation time:       Sun Apr 16 02:35:08 2023


#       Fitting Points Used by GA Software.
#

@<TRIPOS>MOLECULE
GA Fitting Points
  6687    0    0
SMALL
NO_CHARGES


@<TRIPOS>ATOM
      1 ****       223.2500 382.5000 -114.0000 Du        
      2 ****       223.2500 382.5000 -113.7500 Du        
      3 ****       223.2500 382.5000 -113.2500 Du        
      4 ****       223.2500 382.7500 -114.2500 Du        
      5 ****       223.2500 382.7500 -114.0000 Du        
      6 ****       223.2500 382.7500 -113.7500 Du        
      7 ****       223.2500 383.0000 -114.2500 Du        
      8 ****       223.2500 383.0000 -114.0000 Du        
      9 ****       223.2500 383.0000 -113.7500 Du        
     10 ****       223.2500 383.2500 -115.2500 Du        
     11 ****       223.2500 383.2500 -115.0000 Du        
     12 ****       223.2500 383.2500 -114.7500 Du        
     13 ****       223.5000 382.5000 -113.2500 Du        
     14 ****       223.7500 382.0000 -113.2500 Du        
     15 ****       223.7500 382.0000 -113.0000 Du        
     16 ****       223.7500 382.0000 -112.7500 Du        
     17 ****       223.7500 382.2500 -113.2500 Du        
     18 ****       223.7500 382.2500 -113.0000 Du        
     19 ****       223.7500 382.2500 -112.7500 Du        
     20 ****       223.7500 382.5000 -113.2500 Du        
     21 ****       223.7500 382.5000 -113.0000 Du        
     22 ****       223.7500 382.5000 -112.7500 Du        
     23 ****       223.7500 382.7500 -113.0000 Du        
     24 ****       223.7500 382.7500 -112.0000 Du        
     25 ****       224.0000 382.0000 -113.0000 Du        
     26 ****       224.0000 382.0000 -112.7500 Du        
     27 ****       224.0000 382.2500 -113.0000 Du        
     28 ****       224.0000 382.2500 -112.7500 Du        
     29 ****       224.0000 382.5000 -113.0000 Du        
     30 ****       224.0000 382.5000 -112.7500 Du        
     31 ****       224.0000 382.5000 -112.5000 Du        
     32 ****       224.0000 382.5000 -112.2500 Du        
     33 ****       224.0000 382.7500 -113.0000 Du        
     34 ****       224.0000 382.7500 -112.7500 Du        
     35 ****       224.0000 382.7500 -112.2500 Du        
     36 ****       224.0000 382.7500 -112.0000 Du        
     37 ****       224.0000 383.0000 -112.2500 Du        
     38 ****       224.0000 383.0000 -112.0000 Du        
     39 ****       224.2500 381.5000 -112.7500 Du        
     40 ****       224.2500 381.5000 -112.5000 Du        
     41 ****       224.2500 381.7500 -113.0000 Du        
     42 ****       224.2500 381.7500 -112.7500 Du        
     43 ****       224.2500 381.7500 -112.5000 Du        
     44 ****       224.2500 382.0000 -113.0000 Du        
     45 ****       224.2500 382.0000 -112.7500 Du        
     46 ****       224.2500 382.0000 -112.5000 Du        
     47 ****       224.2500 382.0000 -112.2500 Du        
     48 ****       224.2500 382.2500 -113.0000 Du        
     49 ****       224.2500 382.2500 -112.7500 Du        
     50 ****       224.2500 382.2500 -112.5000 Du        
     51 ****       224.2500 382.2500 -112.2500 Du        
     52 ****       224.2500 382.5000 -112.5000 Du        
     53 ****       224.2500 382.5000 -112.2500 Du        
     54 ****       224.2500 382.7500 -112.5000 Du        
     55 ****       224.2500 382.7500 -112.2500 Du        
     56 ****       224.2500 382.7500 -112.0000 Du        
     57 ****       224.2500 383.0000 -112.2500 Du        
     58 ****       224.2500 383.0000 -112.0000 Du        
     59 ****       224.2500 383.2500 -112.0000 Du        
     60 ****       224.5000 381.7500 -112.7500 Du        
     61 ****       224.5000 382.0000 -112.7500 Du        
     62 ****       224.5000 382.0000 -112.5000 Du        
     63 ****       224.5000 382.2500 -112.7500 Du        
     64 ****       224.5000 382.2500 -112.5000 Du        
     65 ****       224.5000 382.2500 -112.2500 Du        
     66 ****       224.5000 382.5000 -112.5000 Du        
     67 ****       224.5000 382.7500 -112.5000 Du        
     68 ****       224.5000 382.7500 -112.2500 Du        
     69 ****       224.5000 383.0000 -112.5000 Du        
     70 ****       224.5000 383.0000 -112.2500 Du        
     71 ****       224.5000 385.0000 -109.5000 Du        
     72 ****       224.7500 384.2500 -115.7500 Du        
     73 ****       224.7500 384.5000 -115.7500 Du        
     74 ****       224.7500 384.7500 -110.0000 Du        
     75 ****       224.7500 384.7500 -109.7500 Du        
     76 ****       224.7500 384.7500 -109.5000 Du        
     77 ****       224.7500 385.0000 -109.7500 Du        
     78 ****       224.7500 385.0000 -109.5000 Du        
     79 ****       224.7500 385.0000 -109.2500 Du        
     80 ****       224.7500 385.2500 -109.5000 Du        
     81 ****       224.7500 385.2500 -109.2500 Du        
     82 ****       224.7500 389.5000 -106.0000 Du        
     83 ****       224.7500 389.5000 -105.7500 Du        
     84 ****       224.7500 389.7500 -105.7500 Du        
     85 ****       225.0000 384.2500 -116.0000 Du        
     86 ****       225.0000 384.2500 -115.7500 Du        
     87 ****       225.0000 384.5000 -115.7500 Du        
     88 ****       225.0000 384.7500 -110.0000 Du        
     89 ****       225.0000 384.7500 -109.7500 Du        
     90 ****       225.0000 384.7500 -109.5000 Du        
     91 ****       225.0000 384.7500 -109.2500 Du        
     92 ****       225.0000 385.0000 -110.0000 Du        
     93 ****       225.0000 385.0000 -109.7500 Du        
     94 ****       225.0000 385.0000 -109.5000 Du        
     95 ****       225.0000 385.0000 -109.2500 Du        
     96 ****       225.0000 385.2500 -109.7500 Du        
     97 ****       225.0000 385.2500 -109.5000 Du        
     98 ****       225.0000 385.2500 -109.2500 Du        
     99 ****       225.0000 389.0000 -105.7500 Du        
    100 ****       225.0000 389.2500 -106.0000 Du        
    101 ****       225.0000 389.2500 -105.7500 Du        
    102 ****       225.0000 389.5000 -106.2500 Du        
    103 ****       225.0000 389.5000 -106.0000 Du        
    104 ****       225.0000 389.5000 -105.7500 Du        
    105 ****       225.0000 389.7500 -106.2500 Du        
    106 ****       225.0000 389.7500 -106.0000 Du        
    107 ****       225.0000 389.7500 -105.7500 Du        
    108 ****       225.0000 390.0000 -106.2500 Du        
    109 ****       225.0000 390.0000 -106.0000 Du        
    110 ****       225.0000 390.0000 -105.7500 Du        
    111 ****       225.0000 390.2500 -106.0000 Du        
    112 ****       225.0000 390.2500 -105.7500 Du        
    113 ****       225.2500 384.2500 -116.2500 Du        
    114 ****       225.2500 384.2500 -116.0000 Du        
    115 ****       225.2500 384.2500 -115.7500 Du        
    116 ****       225.2500 384.2500 -115.5000 Du        
    117 ****       225.2500 384.5000 -116.0000 Du        
    118 ****       225.2500 384.5000 -115.7500 Du        
    119 ****       225.2500 384.7500 -115.7500 Du        
    120 ****       225.2500 384.7500 -110.0000 Du        
    121 ****       225.2500 384.7500 -109.7500 Du        
    122 ****       225.2500 384.7500 -109.5000 Du        
    123 ****       225.2500 384.7500 -109.2500 Du        
    124 ****       225.2500 385.0000 -115.7500 Du        
    125 ****       225.2500 385.0000 -110.0000 Du        
    126 ****       225.2500 385.0000 -109.7500 Du        
    127 ****       225.2500 385.0000 -109.5000 Du        
    128 ****       225.2500 385.0000 -109.2500 Du        
    129 ****       225.2500 385.2500 -110.0000 Du        
    130 ****       225.2500 385.2500 -109.7500 Du        
    131 ****       225.2500 385.2500 -109.5000 Du        
    132 ****       225.2500 385.2500 -109.2500 Du        
    133 ****       225.2500 388.0000 -105.2500 Du        
    134 ****       225.2500 388.2500 -105.5000 Du        
    135 ****       225.2500 388.2500 -105.2500 Du        
    136 ****       225.2500 388.5000 -105.5000 Du        
    137 ****       225.2500 388.5000 -105.2500 Du        
    138 ****       225.2500 388.7500 -105.7500 Du        
    139 ****       225.2500 388.7500 -105.5000 Du        
    140 ****       225.2500 388.7500 -105.2500 Du        
    141 ****       225.2500 389.0000 -106.0000 Du        
    142 ****       225.2500 389.0000 -105.7500 Du        
    143 ****       225.2500 389.0000 -105.5000 Du        
    144 ****       225.2500 389.0000 -105.2500 Du        
    145 ****       225.2500 389.2500 -106.2500 Du        
    146 ****       225.2500 389.2500 -106.0000 Du        
    147 ****       225.2500 389.2500 -105.7500 Du        
    148 ****       225.2500 389.2500 -105.5000 Du        
    149 ****       225.2500 389.2500 -105.2500 Du        
    150 ****       225.2500 389.5000 -106.5000 Du        
    151 ****       225.2500 389.5000 -106.2500 Du        
    152 ****       225.2500 389.5000 -106.0000 Du        
    153 ****       225.2500 389.5000 -105.7500 Du        
    154 ****       225.2500 389.5000 -105.5000 Du        
    155 ****       225.2500 389.5000 -105.2500 Du        
    156 ****       225.2500 389.7500 -106.5000 Du        
    157 ****       225.2500 389.7500 -106.2500 Du        
    158 ****       225.2500 389.7500 -106.0000 Du        
    159 ****       225.2500 389.7500 -105.7500 Du        
    160 ****       225.2500 389.7500 -105.5000 Du        
    161 ****       225.2500 389.7500 -105.2500 Du        
    162 ****       225.2500 390.0000 -106.5000 Du        
    163 ****       225.2500 390.0000 -106.2500 Du        
    164 ****       225.2500 390.0000 -106.0000 Du        
    165 ****       225.2500 390.0000 -105.7500 Du        
    166 ****       225.2500 390.0000 -105.5000 Du        
    167 ****       225.2500 390.0000 -105.2500 Du        
    168 ****       225.2500 390.2500 -106.5000 Du        
    169 ****       225.2500 390.2500 -106.2500 Du        
    170 ****       225.2500 390.2500 -106.0000 Du        
    171 ****       225.2500 390.2500 -105.7500 Du        
    172 ****       225.2500 390.2500 -105.5000 Du        
    173 ****       225.2500 390.2500 -105.2500 Du        
    174 ****       225.2500 390.5000 -106.5000 Du        
    175 ****       225.2500 390.5000 -106.2500 Du        
    176 ****       225.2500 390.5000 -106.0000 Du        
    177 ****       225.2500 390.5000 -105.7500 Du        
    178 ****       225.2500 390.5000 -105.5000 Du        
    179 ****       225.2500 390.5000 -105.2500 Du        
    180 ****       225.2500 390.7500 -106.2500 Du        
    181 ****       225.2500 390.7500 -106.0000 Du        
    182 ****       225.2500 390.7500 -105.7500 Du        
    183 ****       225.2500 390.7500 -105.5000 Du        
    184 ****       225.2500 390.7500 -105.2500 Du        
    185 ****       225.2500 391.0000 -106.2500 Du        
    186 ****       225.2500 391.0000 -106.0000 Du        
    187 ****       225.2500 391.0000 -105.7500 Du        
    188 ****       225.2500 391.0000 -105.5000 Du        
    189 ****       225.2500 391.0000 -105.2500 Du        
    190 ****       225.2500 391.2500 -105.5000 Du        
    191 ****       225.5000 384.2500 -116.2500 Du        
    192 ****       225.5000 384.2500 -116.0000 Du        
    193 ****       225.5000 384.2500 -115.7500 Du        
    194 ****       225.5000 384.5000 -116.2500 Du        
    195 ****       225.5000 384.5000 -116.0000 Du        
    196 ****       225.5000 384.5000 -115.7500 Du        
    197 ****       225.5000 384.7500 -116.0000 Du        
    198 ****       225.5000 384.7500 -115.7500 Du        
    199 ****       225.5000 384.7500 -115.5000 Du        
    200 ****       225.5000 384.7500 -110.2500 Du        
    201 ****       225.5000 384.7500 -110.0000 Du        
    202 ****       225.5000 384.7500 -109.7500 Du        
    203 ****       225.5000 384.7500 -109.5000 Du        
    204 ****       225.5000 385.0000 -115.7500 Du        
    205 ****       225.5000 385.0000 -110.2500 Du        
    206 ****       225.5000 385.0000 -110.0000 Du        
    207 ****       225.5000 385.0000 -109.7500 Du        
    208 ****       225.5000 385.0000 -109.5000 Du        
    209 ****       225.5000 385.0000 -109.2500 Du        
    210 ****       225.5000 385.2500 -110.2500 Du        
    211 ****       225.5000 385.2500 -110.0000 Du        
    212 ****       225.5000 385.2500 -109.7500 Du        
    213 ****       225.5000 385.2500 -109.5000 Du        
    214 ****       225.5000 385.2500 -109.2500 Du        
    215 ****       225.5000 385.5000 -109.7500 Du        
    216 ****       225.5000 385.5000 -109.5000 Du        
    217 ****       225.5000 385.7500 -109.5000 Du        
    218 ****       225.5000 388.2500 -106.0000 Du        
    219 ****       225.5000 388.2500 -105.7500 Du        
    220 ****       225.5000 388.2500 -105.5000 Du        
    221 ****       225.5000 388.2500 -105.2500 Du        
    222 ****       225.5000 388.5000 -106.2500 Du        
    223 ****       225.5000 388.5000 -106.0000 Du        
    224 ****       225.5000 388.5000 -105.7500 Du        
    225 ****       225.5000 388.5000 -105.5000 Du        
    226 ****       225.5000 388.5000 -105.2500 Du        
    227 ****       225.5000 388.7500 -106.2500 Du        
    228 ****       225.5000 388.7500 -106.0000 Du        
    229 ****       225.5000 388.7500 -105.7500 Du        
    230 ****       225.5000 388.7500 -105.5000 Du        
    231 ****       225.5000 388.7500 -105.2500 Du        
    232 ****       225.5000 389.0000 -106.5000 Du        
    233 ****       225.5000 389.0000 -106.2500 Du        
    234 ****       225.5000 389.0000 -106.0000 Du        
    235 ****       225.5000 389.0000 -105.7500 Du        
    236 ****       225.5000 389.0000 -105.5000 Du        
    237 ****       225.5000 389.0000 -105.2500 Du        
    238 ****       225.5000 389.2500 -106.5000 Du        
    239 ****       225.5000 389.2500 -106.2500 Du        
    240 ****       225.5000 389.2500 -106.0000 Du        
    241 ****       225.5000 389.2500 -105.7500 Du        
    242 ****       225.5000 389.2500 -105.5000 Du        
    243 ****       225.5000 389.2500 -105.2500 Du        
    244 ****       225.5000 389.5000 -106.7500 Du        
    245 ****       225.5000 389.5000 -106.5000 Du        
    246 ****       225.5000 389.5000 -106.2500 Du        
    247 ****       225.5000 389.5000 -106.0000 Du        
    248 ****       225.5000 389.5000 -105.7500 Du        
    249 ****       225.5000 389.5000 -105.5000 Du        
    250 ****       225.5000 389.5000 -105.2500 Du        
    251 ****       225.5000 389.7500 -106.7500 Du        
    252 ****       225.5000 389.7500 -106.5000 Du        
    253 ****       225.5000 389.7500 -106.2500 Du        
    254 ****       225.5000 389.7500 -106.0000 Du        
    255 ****       225.5000 389.7500 -105.7500 Du        
    256 ****       225.5000 389.7500 -105.5000 Du        
    257 ****       225.5000 389.7500 -105.2500 Du        
    258 ****       225.5000 390.0000 -106.7500 Du        
    259 ****       225.5000 390.0000 -106.5000 Du        
    260 ****       225.5000 390.0000 -106.2500 Du        
    261 ****       225.5000 390.0000 -106.0000 Du        
    262 ****       225.5000 390.0000 -105.7500 Du        
    263 ****       225.5000 390.0000 -105.5000 Du        
    264 ****       225.5000 390.0000 -105.2500 Du        
    265 ****       225.5000 390.2500 -106.5000 Du        
    266 ****       225.5000 390.2500 -106.2500 Du        
    267 ****       225.5000 390.2500 -106.0000 Du        
    268 ****       225.5000 390.2500 -105.7500 Du        
    269 ****       225.5000 390.2500 -105.5000 Du        
    270 ****       225.5000 390.2500 -105.2500 Du        
    271 ****       225.5000 390.5000 -106.5000 Du        
    272 ****       225.5000 390.5000 -106.2500 Du        
    273 ****       225.5000 390.5000 -106.0000 Du        
    274 ****       225.5000 390.5000 -105.7500 Du        
    275 ****       225.5000 390.5000 -105.5000 Du        
    276 ****       225.5000 390.5000 -105.2500 Du        
    277 ****       225.5000 390.7500 -106.5000 Du        
    278 ****       225.5000 390.7500 -106.2500 Du        
    279 ****       225.5000 390.7500 -106.0000 Du        
    280 ****       225.5000 390.7500 -105.7500 Du        
    281 ****       225.5000 390.7500 -105.5000 Du        
    282 ****       225.5000 390.7500 -105.2500 Du        
    283 ****       225.5000 391.0000 -106.2500 Du        
    284 ****       225.5000 391.0000 -106.0000 Du        
    285 ****       225.5000 391.0000 -105.7500 Du        
    286 ****       225.5000 391.0000 -105.5000 Du        
    287 ****       225.5000 391.0000 -105.2500 Du        
    288 ****       225.5000 391.2500 -106.2500 Du        
    289 ****       225.5000 391.2500 -106.0000 Du        
    290 ****       225.5000 391.2500 -105.7500 Du        
    291 ****       225.5000 391.2500 -105.5000 Du        
    292 ****       225.5000 391.2500 -105.2500 Du        
    293 ****       225.5000 391.5000 -106.0000 Du        
    294 ****       225.5000 391.5000 -105.7500 Du        
    295 ****       225.5000 391.5000 -105.5000 Du        
    296 ****       225.5000 391.5000 -105.2500 Du        
    297 ****       225.5000 391.7500 -106.0000 Du        
    298 ****       225.5000 391.7500 -105.7500 Du        
    299 ****       225.5000 391.7500 -105.5000 Du        
    300 ****       225.5000 391.7500 -105.2500 Du        
    301 ****       225.5000 392.0000 -105.7500 Du        
    302 ****       225.5000 392.0000 -105.5000 Du        
    303 ****       225.5000 392.0000 -105.2500 Du        
    304 ****       225.5000 392.2500 -105.7500 Du        
    305 ****       225.5000 392.2500 -105.5000 Du        
    306 ****       225.5000 392.2500 -105.2500 Du        
    307 ****       225.7500 384.2500 -116.5000 Du        
    308 ****       225.7500 384.2500 -116.2500 Du        
    309 ****       225.7500 384.2500 -116.0000 Du        
    310 ****       225.7500 384.2500 -115.7500 Du        
    311 ****       225.7500 384.5000 -116.5000 Du        
    312 ****       225.7500 384.5000 -116.2500 Du        
    313 ****       225.7500 384.5000 -116.0000 Du        
    314 ****       225.7500 384.5000 -115.7500 Du        
    315 ****       225.7500 384.5000 -115.5000 Du        
    316 ****       225.7500 384.5000 -115.2500 Du        
    317 ****       225.7500 384.7500 -116.2500 Du        
    318 ****       225.7500 384.7500 -116.0000 Du        
    319 ****       225.7500 384.7500 -115.7500 Du        
    320 ****       225.7500 384.7500 -115.5000 Du        
    321 ****       225.7500 384.7500 -115.2500 Du        
    322 ****       225.7500 384.7500 -110.2500 Du        
    323 ****       225.7500 384.7500 -110.0000 Du        
    324 ****       225.7500 384.7500 -109.7500 Du        
    325 ****       225.7500 384.7500 -109.5000 Du        
    326 ****       225.7500 385.0000 -116.2500 Du        
    327 ****       225.7500 385.0000 -116.0000 Du        
    328 ****       225.7500 385.0000 -115.7500 Du        
    329 ****       225.7500 385.0000 -115.5000 Du        
    330 ****       225.7500 385.0000 -115.2500 Du        
    331 ****       225.7500 385.0000 -110.2500 Du        
    332 ****       225.7500 385.0000 -110.0000 Du        
    333 ****       225.7500 385.0000 -109.7500 Du        
    334 ****       225.7500 385.0000 -109.5000 Du        
    335 ****       225.7500 385.0000 -109.2500 Du        
    336 ****       225.7500 385.2500 -116.0000 Du        
    337 ****       225.7500 385.2500 -115.7500 Du        
    338 ****       225.7500 385.2500 -110.2500 Du        
    339 ****       225.7500 385.2500 -110.0000 Du        
    340 ****       225.7500 385.2500 -109.7500 Du        
    341 ****       225.7500 385.2500 -109.5000 Du        
    342 ****       225.7500 385.2500 -109.2500 Du        
    343 ****       225.7500 385.5000 -115.7500 Du        
    344 ****       225.7500 385.5000 -110.0000 Du        
    345 ****       225.7500 385.5000 -109.7500 Du        
    346 ****       225.7500 385.5000 -109.5000 Du        
    347 ****       225.7500 385.5000 -109.2500 Du        
    348 ****       225.7500 385.7500 -109.7500 Du        
    349 ****       225.7500 385.7500 -109.5000 Du        
    350 ****       225.7500 386.0000 -109.5000 Du        
    351 ****       225.7500 388.2500 -106.0000 Du        
    352 ****       225.7500 388.2500 -105.7500 Du        
    353 ****       225.7500 388.2500 -105.5000 Du        
    354 ****       225.7500 388.2500 -105.2500 Du        
    355 ****       225.7500 388.5000 -106.5000 Du        
    356 ****       225.7500 388.5000 -106.2500 Du        
    357 ****       225.7500 388.5000 -106.0000 Du        
    358 ****       225.7500 388.5000 -105.7500 Du        
    359 ****       225.7500 388.5000 -105.5000 Du        
    360 ****       225.7500 388.5000 -105.2500 Du        
    361 ****       225.7500 388.5000 -105.0000 Du        
    362 ****       225.7500 388.5000 -104.7500 Du        
    363 ****       225.7500 388.7500 -106.7500 Du        
    364 ****       225.7500 388.7500 -106.5000 Du        
    365 ****       225.7500 388.7500 -106.2500 Du        
    366 ****       225.7500 388.7500 -106.0000 Du        
    367 ****       225.7500 388.7500 -105.7500 Du        
    368 ****       225.7500 388.7500 -105.5000 Du        
    369 ****       225.7500 388.7500 -105.2500 Du        
    370 ****       225.7500 388.7500 -105.0000 Du        
    371 ****       225.7500 388.7500 -104.7500 Du        
    372 ****       225.7500 389.0000 -107.0000 Du        
    373 ****       225.7500 389.0000 -106.7500 Du        
    374 ****       225.7500 389.0000 -106.5000 Du        
    375 ****       225.7500 389.0000 -106.2500 Du        
    376 ****       225.7500 389.0000 -106.0000 Du        
    377 ****       225.7500 389.0000 -105.7500 Du        
    378 ****       225.7500 389.0000 -105.5000 Du        
    379 ****       225.7500 389.0000 -105.2500 Du        
    380 ****       225.7500 389.0000 -105.0000 Du        
    381 ****       225.7500 389.0000 -104.7500 Du        
    382 ****       225.7500 389.2500 -107.0000 Du        
    383 ****       225.7500 389.2500 -106.7500 Du        
    384 ****       225.7500 389.2500 -106.5000 Du        
    385 ****       225.7500 389.2500 -106.2500 Du        
    386 ****       225.7500 389.2500 -106.0000 Du        
    387 ****       225.7500 389.2500 -105.7500 Du        
    388 ****       225.7500 389.2500 -105.5000 Du        
    389 ****       225.7500 389.2500 -105.2500 Du        
    390 ****       225.7500 389.2500 -105.0000 Du        
    391 ****       225.7500 389.2500 -104.7500 Du        
    392 ****       225.7500 389.5000 -106.7500 Du        
    393 ****       225.7500 389.5000 -106.5000 Du        
    394 ****       225.7500 389.5000 -106.2500 Du        
    395 ****       225.7500 389.5000 -106.0000 Du        
    396 ****       225.7500 389.5000 -105.7500 Du        
    397 ****       225.7500 389.5000 -105.5000 Du        
    398 ****       225.7500 389.5000 -105.2500 Du        
    399 ****       225.7500 389.5000 -105.0000 Du        
    400 ****       225.7500 389.5000 -104.7500 Du        
    401 ****       225.7500 389.7500 -107.0000 Du        
    402 ****       225.7500 389.7500 -106.7500 Du        
    403 ****       225.7500 389.7500 -106.5000 Du        
    404 ****       225.7500 389.7500 -106.2500 Du        
    405 ****       225.7500 389.7500 -106.0000 Du        
    406 ****       225.7500 389.7500 -105.7500 Du        
    407 ****       225.7500 389.7500 -105.5000 Du        
    408 ****       225.7500 389.7500 -105.2500 Du        
    409 ****       225.7500 389.7500 -105.0000 Du        
    410 ****       225.7500 389.7500 -104.7500 Du        
    411 ****       225.7500 390.0000 -106.7500 Du        
    412 ****       225.7500 390.0000 -106.5000 Du        
    413 ****       225.7500 390.0000 -106.2500 Du        
    414 ****       225.7500 390.0000 -106.0000 Du        
    415 ****       225.7500 390.0000 -105.7500 Du        
    416 ****       225.7500 390.0000 -105.5000 Du        
    417 ****       225.7500 390.0000 -105.2500 Du        
    418 ****       225.7500 390.0000 -105.0000 Du        
    419 ****       225.7500 390.0000 -104.7500 Du        
    420 ****       225.7500 390.2500 -106.5000 Du        
    421 ****       225.7500 390.2500 -106.2500 Du        
    422 ****       225.7500 390.2500 -106.0000 Du        
    423 ****       225.7500 390.2500 -105.7500 Du        
    424 ****       225.7500 390.2500 -105.5000 Du        
    425 ****       225.7500 390.2500 -105.2500 Du        
    426 ****       225.7500 390.2500 -105.0000 Du        
    427 ****       225.7500 390.2500 -104.7500 Du        
    428 ****       225.7500 390.5000 -106.5000 Du        
    429 ****       225.7500 390.5000 -106.2500 Du        
    430 ****       225.7500 390.5000 -106.0000 Du        
    431 ****       225.7500 390.5000 -105.7500 Du        
    432 ****       225.7500 390.5000 -105.5000 Du        
    433 ****       225.7500 390.5000 -105.2500 Du        
    434 ****       225.7500 390.5000 -105.0000 Du        
    435 ****       225.7500 390.5000 -104.7500 Du        
    436 ****       225.7500 390.7500 -106.5000 Du        
    437 ****       225.7500 390.7500 -106.2500 Du        
    438 ****       225.7500 390.7500 -106.0000 Du        
    439 ****       225.7500 390.7500 -105.7500 Du        
    440 ****       225.7500 390.7500 -105.5000 Du        
    441 ****       225.7500 390.7500 -105.2500 Du        
    442 ****       225.7500 390.7500 -105.0000 Du        
    443 ****       225.7500 391.0000 -106.2500 Du        
    444 ****       225.7500 391.0000 -106.0000 Du        
    445 ****       225.7500 391.0000 -105.7500 Du        
    446 ****       225.7500 391.0000 -105.5000 Du        
    447 ****       225.7500 391.0000 -105.2500 Du        
    448 ****       225.7500 391.0000 -105.0000 Du        
    449 ****       225.7500 391.2500 -106.2500 Du        
    450 ****       225.7500 391.2500 -106.0000 Du        
    451 ****       225.7500 391.2500 -105.7500 Du        
    452 ****       225.7500 391.2500 -105.5000 Du        
    453 ****       225.7500 391.2500 -105.2500 Du        
    454 ****       225.7500 391.5000 -106.2500 Du        
    455 ****       225.7500 391.5000 -106.0000 Du        
    456 ****       225.7500 391.5000 -105.7500 Du        
    457 ****       225.7500 391.5000 -105.5000 Du        
    458 ****       225.7500 391.5000 -105.2500 Du        
    459 ****       225.7500 391.7500 -106.0000 Du        
    460 ****       225.7500 391.7500 -105.7500 Du        
    461 ****       225.7500 391.7500 -105.5000 Du        
    462 ****       225.7500 391.7500 -105.2500 Du        
    463 ****       225.7500 392.0000 -106.0000 Du        
    464 ****       225.7500 392.0000 -105.7500 Du        
    465 ****       225.7500 392.0000 -105.5000 Du        
    466 ****       225.7500 392.0000 -105.2500 Du        
    467 ****       225.7500 392.2500 -105.7500 Du        
    468 ****       225.7500 392.2500 -105.5000 Du        
    469 ****       225.7500 392.2500 -105.2500 Du        
    470 ****       225.7500 392.5000 -105.5000 Du        
    471 ****       225.7500 392.5000 -105.2500 Du        
    472 ****       225.7500 392.7500 -105.2500 Du        
    473 ****       225.7500 393.0000 -105.2500 Du        
    474 ****       226.0000 384.0000 -112.0000 Du        
    475 ****       226.0000 384.2500 -116.7500 Du        
    476 ****       226.0000 384.2500 -116.5000 Du        
    477 ****       226.0000 384.2500 -116.2500 Du        
    478 ****       226.0000 384.2500 -116.0000 Du        
    479 ****       226.0000 384.2500 -115.7500 Du        
    480 ****       226.0000 384.5000 -116.7500 Du        
    481 ****       226.0000 384.5000 -116.5000 Du        
    482 ****       226.0000 384.5000 -116.2500 Du        
    483 ****       226.0000 384.5000 -116.0000 Du        
    484 ****       226.0000 384.5000 -115.7500 Du        
    485 ****       226.0000 384.5000 -115.5000 Du        
    486 ****       226.0000 384.5000 -115.2500 Du        
    487 ****       226.0000 384.7500 -116.7500 Du        
    488 ****       226.0000 384.7500 -116.5000 Du        
    489 ****       226.0000 384.7500 -116.2500 Du        
    490 ****       226.0000 384.7500 -116.0000 Du        
    491 ****       226.0000 384.7500 -115.7500 Du        
    492 ****       226.0000 384.7500 -115.5000 Du        
    493 ****       226.0000 384.7500 -115.2500 Du        
    494 ****       226.0000 384.7500 -110.5000 Du        
    495 ****       226.0000 384.7500 -110.2500 Du        
    496 ****       226.0000 384.7500 -110.0000 Du        
    497 ****       226.0000 384.7500 -109.7500 Du        
    498 ****       226.0000 385.0000 -116.7500 Du        
    499 ****       226.0000 385.0000 -116.5000 Du        
    500 ****       226.0000 385.0000 -116.2500 Du        
    501 ****       226.0000 385.0000 -116.0000 Du        
    502 ****       226.0000 385.0000 -115.7500 Du        
    503 ****       226.0000 385.0000 -115.5000 Du        
    504 ****       226.0000 385.0000 -115.2500 Du        
    505 ****       226.0000 385.0000 -110.5000 Du        
    506 ****       226.0000 385.0000 -110.2500 Du        
    507 ****       226.0000 385.0000 -110.0000 Du        
    508 ****       226.0000 385.0000 -109.7500 Du        
    509 ****       226.0000 385.0000 -109.5000 Du        
    510 ****       226.0000 385.2500 -116.2500 Du        
    511 ****       226.0000 385.2500 -116.0000 Du        
    512 ****       226.0000 385.2500 -115.7500 Du        
    513 ****       226.0000 385.2500 -115.5000 Du        
    514 ****       226.0000 385.2500 -110.5000 Du        
    515 ****       226.0000 385.2500 -110.2500 Du        
    516 ****       226.0000 385.2500 -110.0000 Du        
    517 ****       226.0000 385.2500 -109.7500 Du        
    518 ****       226.0000 385.2500 -109.5000 Du        
    519 ****       226.0000 385.5000 -116.0000 Du        
    520 ****       226.0000 385.5000 -115.7500 Du        
    521 ****       226.0000 385.5000 -110.2500 Du        
    522 ****       226.0000 385.5000 -110.0000 Du        
    523 ****       226.0000 385.5000 -109.7500 Du        
    524 ****       226.0000 385.5000 -109.5000 Du        
    525 ****       226.0000 385.7500 -116.0000 Du        
    526 ****       226.0000 385.7500 -115.7500 Du        
    527 ****       226.0000 385.7500 -109.7500 Du        
    528 ****       226.0000 385.7500 -109.5000 Du        
    529 ****       226.0000 386.0000 -109.5000 Du        
    530 ****       226.0000 388.2500 -105.7500 Du        
    531 ****       226.0000 388.2500 -105.5000 Du        
    532 ****       226.0000 388.2500 -105.2500 Du        
    533 ****       226.0000 388.5000 -106.5000 Du        
    534 ****       226.0000 388.5000 -106.2500 Du        
    535 ****       226.0000 388.5000 -106.0000 Du        
    536 ****       226.0000 388.5000 -105.7500 Du        
    537 ****       226.0000 388.5000 -105.5000 Du        
    538 ****       226.0000 388.5000 -105.2500 Du        
    539 ****       226.0000 388.5000 -105.0000 Du        
    540 ****       226.0000 388.5000 -104.7500 Du        
    541 ****       226.0000 388.7500 -107.2500 Du        
    542 ****       226.0000 388.7500 -107.0000 Du        
    543 ****       226.0000 388.7500 -106.7500 Du        
    544 ****       226.0000 388.7500 -106.5000 Du        
    545 ****       226.0000 388.7500 -106.2500 Du        
    546 ****       226.0000 388.7500 -106.0000 Du        
    547 ****       226.0000 388.7500 -105.7500 Du        
    548 ****       226.0000 388.7500 -105.5000 Du        
    549 ****       226.0000 388.7500 -105.2500 Du        
    550 ****       226.0000 388.7500 -105.0000 Du        
    551 ****       226.0000 388.7500 -104.7500 Du        
    552 ****       226.0000 389.0000 -107.2500 Du        
    553 ****       226.0000 389.0000 -107.0000 Du        
    554 ****       226.0000 389.0000 -106.7500 Du        
    555 ****       226.0000 389.0000 -106.5000 Du        
    556 ****       226.0000 389.0000 -106.2500 Du        
    557 ****       226.0000 389.0000 -106.0000 Du        
    558 ****       226.0000 389.0000 -105.7500 Du        
    559 ****       226.0000 389.0000 -105.5000 Du        
    560 ****       226.0000 389.0000 -105.2500 Du        
    561 ****       226.0000 389.0000 -105.0000 Du        
    562 ****       226.0000 389.0000 -104.7500 Du        
    563 ****       226.0000 389.2500 -107.2500 Du        
    564 ****       226.0000 389.2500 -107.0000 Du        
    565 ****       226.0000 389.2500 -106.7500 Du        
    566 ****       226.0000 389.2500 -106.5000 Du        
    567 ****       226.0000 389.2500 -106.2500 Du        
    568 ****       226.0000 389.2500 -106.0000 Du        
    569 ****       226.0000 389.2500 -105.7500 Du        
    570 ****       226.0000 389.2500 -105.5000 Du        
    571 ****       226.0000 389.2500 -105.2500 Du        
    572 ****       226.0000 389.2500 -105.0000 Du        
    573 ****       226.0000 389.2500 -104.7500 Du        
    574 ****       226.0000 389.5000 -107.0000 Du        
    575 ****       226.0000 389.5000 -106.7500 Du        
    576 ****       226.0000 389.5000 -106.5000 Du        
    577 ****       226.0000 389.5000 -106.2500 Du        
    578 ****       226.0000 389.5000 -106.0000 Du        
    579 ****       226.0000 389.5000 -105.7500 Du        
    580 ****       226.0000 389.5000 -105.5000 Du        
    581 ****       226.0000 389.5000 -105.2500 Du        
    582 ****       226.0000 389.5000 -105.0000 Du        
    583 ****       226.0000 389.5000 -104.7500 Du        
    584 ****       226.0000 389.7500 -107.0000 Du        
    585 ****       226.0000 389.7500 -106.7500 Du        
    586 ****       226.0000 389.7500 -106.5000 Du        
    587 ****       226.0000 389.7500 -106.2500 Du        
    588 ****       226.0000 389.7500 -106.0000 Du        
    589 ****       226.0000 389.7500 -105.7500 Du        
    590 ****       226.0000 389.7500 -105.5000 Du        
    591 ****       226.0000 389.7500 -105.2500 Du        
    592 ****       226.0000 389.7500 -105.0000 Du        
    593 ****       226.0000 389.7500 -104.7500 Du        
    594 ****       226.0000 390.0000 -107.0000 Du        
    595 ****       226.0000 390.0000 -106.7500 Du        
    596 ****       226.0000 390.0000 -106.5000 Du        
    597 ****       226.0000 390.0000 -106.2500 Du        
    598 ****       226.0000 390.0000 -106.0000 Du        
    599 ****       226.0000 390.0000 -105.7500 Du        
    600 ****       226.0000 390.0000 -105.5000 Du        
    601 ****       226.0000 390.0000 -105.2500 Du        
    602 ****       226.0000 390.0000 -105.0000 Du        
    603 ****       226.0000 390.0000 -104.7500 Du        
    604 ****       226.0000 390.2500 -106.7500 Du        
    605 ****       226.0000 390.2500 -106.5000 Du        
    606 ****       226.0000 390.2500 -106.2500 Du        
    607 ****       226.0000 390.2500 -106.0000 Du        
    608 ****       226.0000 390.2500 -105.7500 Du        
    609 ****       226.0000 390.2500 -105.5000 Du        
    610 ****       226.0000 390.2500 -105.2500 Du        
    611 ****       226.0000 390.2500 -105.0000 Du        
    612 ****       226.0000 390.2500 -104.7500 Du        
    613 ****       226.0000 390.5000 -106.5000 Du        
    614 ****       226.0000 390.5000 -106.2500 Du        
    615 ****       226.0000 390.5000 -106.0000 Du        
    616 ****       226.0000 390.5000 -105.7500 Du        
    617 ****       226.0000 390.5000 -105.5000 Du        
    618 ****       226.0000 390.5000 -105.2500 Du        
    619 ****       226.0000 390.5000 -105.0000 Du        
    620 ****       226.0000 390.7500 -106.5000 Du        
    621 ****       226.0000 390.7500 -106.2500 Du        
    622 ****       226.0000 390.7500 -106.0000 Du        
    623 ****       226.0000 390.7500 -105.7500 Du        
    624 ****       226.0000 390.7500 -105.5000 Du        
    625 ****       226.0000 390.7500 -105.2500 Du        
    626 ****       226.0000 390.7500 -105.0000 Du        
    627 ****       226.0000 391.0000 -106.2500 Du        
    628 ****       226.0000 391.0000 -106.0000 Du        
    629 ****       226.0000 391.0000 -105.7500 Du        
    630 ****       226.0000 391.0000 -105.5000 Du        
    631 ****       226.0000 391.0000 -105.2500 Du        
    632 ****       226.0000 391.0000 -105.0000 Du        
    633 ****       226.0000 391.2500 -106.2500 Du        
    634 ****       226.0000 391.2500 -106.0000 Du        
    635 ****       226.0000 391.2500 -105.7500 Du        
    636 ****       226.0000 391.2500 -105.5000 Du        
    637 ****       226.0000 391.2500 -105.2500 Du        
    638 ****       226.0000 391.5000 -106.2500 Du        
    639 ****       226.0000 391.5000 -106.0000 Du        
    640 ****       226.0000 391.5000 -105.7500 Du        
    641 ****       226.0000 391.5000 -105.5000 Du        
    642 ****       226.0000 391.5000 -105.2500 Du        
    643 ****       226.0000 391.7500 -106.0000 Du        
    644 ****       226.0000 391.7500 -105.7500 Du        
    645 ****       226.0000 391.7500 -105.5000 Du        
    646 ****       226.0000 391.7500 -105.2500 Du        
    647 ****       226.0000 392.0000 -106.0000 Du        
    648 ****       226.0000 392.0000 -105.7500 Du        
    649 ****       226.0000 392.0000 -105.5000 Du        
    650 ****       226.0000 392.0000 -105.2500 Du        
    651 ****       226.0000 392.2500 -105.7500 Du        
    652 ****       226.0000 392.2500 -105.5000 Du        
    653 ****       226.0000 392.2500 -105.2500 Du        
    654 ****       226.0000 392.5000 -105.5000 Du        
    655 ****       226.0000 392.5000 -105.2500 Du        
    656 ****       226.0000 392.7500 -105.2500 Du        
    657 ****       226.2500 384.0000 -112.0000 Du        
    658 ****       226.2500 384.2500 -116.5000 Du        
    659 ****       226.2500 384.2500 -116.2500 Du        
    660 ****       226.2500 384.2500 -116.0000 Du        
    661 ****       226.2500 384.2500 -115.7500 Du        
    662 ****       226.2500 384.5000 -116.7500 Du        
    663 ****       226.2500 384.5000 -116.5000 Du        
    664 ****       226.2500 384.5000 -116.2500 Du        
    665 ****       226.2500 384.5000 -116.0000 Du        
    666 ****       226.2500 384.5000 -115.7500 Du        
    667 ****       226.2500 384.5000 -115.5000 Du        
    668 ****       226.2500 384.5000 -115.2500 Du        
    669 ****       226.2500 384.7500 -117.0000 Du        
    670 ****       226.2500 384.7500 -116.7500 Du        
    671 ****       226.2500 384.7500 -116.5000 Du        
    672 ****       226.2500 384.7500 -116.2500 Du        
    673 ****       226.2500 384.7500 -116.0000 Du        
    674 ****       226.2500 384.7500 -115.7500 Du        
    675 ****       226.2500 384.7500 -115.5000 Du        
    676 ****       226.2500 384.7500 -115.2500 Du        
    677 ****       226.2500 384.7500 -115.0000 Du        
    678 ****       226.2500 384.7500 -110.5000 Du        
    679 ****       226.2500 384.7500 -110.2500 Du        
    680 ****       226.2500 384.7500 -110.0000 Du        
    681 ****       226.2500 385.0000 -117.0000 Du        
    682 ****       226.2500 385.0000 -116.7500 Du        
    683 ****       226.2500 385.0000 -116.5000 Du        
    684 ****       226.2500 385.0000 -116.2500 Du        
    685 ****       226.2500 385.0000 -116.0000 Du        
    686 ****       226.2500 385.0000 -115.7500 Du        
    687 ****       226.2500 385.0000 -115.5000 Du        
    688 ****       226.2500 385.0000 -115.2500 Du        
    689 ****       226.2500 385.0000 -110.5000 Du        
    690 ****       226.2500 385.0000 -110.2500 Du        
    691 ****       226.2500 385.0000 -110.0000 Du        
    692 ****       226.2500 385.0000 -109.7500 Du        
    693 ****       226.2500 385.0000 -109.5000 Du        
    694 ****       226.2500 385.2500 -116.7500 Du        
    695 ****       226.2500 385.2500 -116.5000 Du        
    696 ****       226.2500 385.2500 -116.2500 Du        
    697 ****       226.2500 385.2500 -116.0000 Du        
    698 ****       226.2500 385.2500 -115.7500 Du        
    699 ****       226.2500 385.2500 -115.5000 Du        
    700 ****       226.2500 385.2500 -115.2500 Du        
    701 ****       226.2500 385.2500 -110.5000 Du        
    702 ****       226.2500 385.2500 -110.2500 Du        
    703 ****       226.2500 385.2500 -110.0000 Du        
    704 ****       226.2500 385.2500 -109.7500 Du        
    705 ****       226.2500 385.2500 -109.5000 Du        
    706 ****       226.2500 385.5000 -116.2500 Du        
    707 ****       226.2500 385.5000 -116.0000 Du        
    708 ****       226.2500 385.5000 -115.7500 Du        
    709 ****       226.2500 385.5000 -110.2500 Du        
    710 ****       226.2500 385.5000 -110.0000 Du        
    711 ****       226.2500 385.5000 -109.7500 Du        
    712 ****       226.2500 385.5000 -109.5000 Du        
    713 ****       226.2500 385.7500 -116.2500 Du        
    714 ****       226.2500 385.7500 -116.0000 Du        
    715 ****       226.2500 385.7500 -115.7500 Du        
    716 ****       226.2500 385.7500 -110.0000 Du        
    717 ****       226.2500 385.7500 -109.7500 Du        
    718 ****       226.2500 385.7500 -109.5000 Du        
    719 ****       226.2500 386.0000 -116.0000 Du        
    720 ****       226.2500 386.0000 -115.7500 Du        
    721 ****       226.2500 386.0000 -109.5000 Du        
    722 ****       226.2500 388.2500 -105.0000 Du        
    723 ****       226.2500 388.2500 -104.7500 Du        
    724 ****       226.2500 388.5000 -105.7500 Du        
    725 ****       226.2500 388.5000 -105.5000 Du        
    726 ****       226.2500 388.5000 -105.2500 Du        
    727 ****       226.2500 388.5000 -105.0000 Du        
    728 ****       226.2500 388.5000 -104.7500 Du        
    729 ****       226.2500 388.7500 -107.2500 Du        
    730 ****       226.2500 388.7500 -107.0000 Du        
    731 ****       226.2500 388.7500 -106.5000 Du        
    732 ****       226.2500 388.7500 -106.2500 Du        
    733 ****       226.2500 388.7500 -106.0000 Du        
    734 ****       226.2500 388.7500 -105.7500 Du        
    735 ****       226.2500 388.7500 -105.5000 Du        
    736 ****       226.2500 388.7500 -105.2500 Du        
    737 ****       226.2500 388.7500 -105.0000 Du        
    738 ****       226.2500 388.7500 -104.7500 Du        
    739 ****       226.2500 389.0000 -107.5000 Du        
    740 ****       226.2500 389.0000 -107.2500 Du        
    741 ****       226.2500 389.0000 -107.0000 Du        
    742 ****       226.2500 389.0000 -106.7500 Du        
    743 ****       226.2500 389.0000 -106.5000 Du        
    744 ****       226.2500 389.0000 -106.2500 Du        
    745 ****       226.2500 389.0000 -106.0000 Du        
    746 ****       226.2500 389.0000 -105.7500 Du        
    747 ****       226.2500 389.0000 -105.5000 Du        
    748 ****       226.2500 389.0000 -105.2500 Du        
    749 ****       226.2500 389.0000 -105.0000 Du        
    750 ****       226.2500 389.0000 -104.7500 Du        
    751 ****       226.2500 389.2500 -107.0000 Du        
    752 ****       226.2500 389.2500 -106.7500 Du        
    753 ****       226.2500 389.2500 -106.5000 Du        
    754 ****       226.2500 389.2500 -106.2500 Du        
    755 ****       226.2500 389.2500 -106.0000 Du        
    756 ****       226.2500 389.2500 -105.7500 Du        
    757 ****       226.2500 389.2500 -105.5000 Du        
    758 ****       226.2500 389.2500 -105.2500 Du        
    759 ****       226.2500 389.2500 -105.0000 Du        
    760 ****       226.2500 389.2500 -104.7500 Du        
    761 ****       226.2500 389.5000 -107.0000 Du        
    762 ****       226.2500 389.5000 -106.7500 Du        
    763 ****       226.2500 389.5000 -106.5000 Du        
    764 ****       226.2500 389.5000 -106.2500 Du        
    765 ****       226.2500 389.5000 -106.0000 Du        
    766 ****       226.2500 389.5000 -105.7500 Du        
    767 ****       226.2500 389.5000 -105.5000 Du        
    768 ****       226.2500 389.5000 -105.2500 Du        
    769 ****       226.2500 389.5000 -105.0000 Du        
    770 ****       226.2500 389.5000 -104.7500 Du        
    771 ****       226.2500 389.7500 -107.0000 Du        
    772 ****       226.2500 389.7500 -106.7500 Du        
    773 ****       226.2500 389.7500 -106.5000 Du        
    774 ****       226.2500 389.7500 -106.2500 Du        
    775 ****       226.2500 389.7500 -106.0000 Du        
    776 ****       226.2500 389.7500 -105.7500 Du        
    777 ****       226.2500 389.7500 -105.5000 Du        
    778 ****       226.2500 389.7500 -105.2500 Du        
    779 ****       226.2500 389.7500 -105.0000 Du        
    780 ****       226.2500 389.7500 -104.7500 Du        
    781 ****       226.2500 390.0000 -106.7500 Du        
    782 ****       226.2500 390.0000 -106.5000 Du        
    783 ****       226.2500 390.0000 -106.2500 Du        
    784 ****       226.2500 390.0000 -106.0000 Du        
    785 ****       226.2500 390.0000 -105.7500 Du        
    786 ****       226.2500 390.0000 -105.5000 Du        
    787 ****       226.2500 390.0000 -105.2500 Du        
    788 ****       226.2500 390.0000 -105.0000 Du        
    789 ****       226.2500 390.0000 -104.7500 Du        
    790 ****       226.2500 390.2500 -106.7500 Du        
    791 ****       226.2500 390.2500 -106.5000 Du        
    792 ****       226.2500 390.2500 -106.2500 Du        
    793 ****       226.2500 390.2500 -106.0000 Du        
    794 ****       226.2500 390.2500 -105.7500 Du        
    795 ****       226.2500 390.2500 -105.5000 Du        
    796 ****       226.2500 390.2500 -105.2500 Du        
    797 ****       226.2500 390.2500 -105.0000 Du        
    798 ****       226.2500 390.2500 -104.7500 Du        
    799 ****       226.2500 390.5000 -106.5000 Du        
    800 ****       226.2500 390.5000 -106.2500 Du        
    801 ****       226.2500 390.5000 -106.0000 Du        
    802 ****       226.2500 390.5000 -105.7500 Du        
    803 ****       226.2500 390.5000 -105.5000 Du        
    804 ****       226.2500 390.5000 -105.2500 Du        
    805 ****       226.2500 390.5000 -105.0000 Du        
    806 ****       226.2500 390.7500 -106.5000 Du        
    807 ****       226.2500 390.7500 -106.2500 Du        
    808 ****       226.2500 390.7500 -106.0000 Du        
    809 ****       226.2500 390.7500 -105.7500 Du        
    810 ****       226.2500 390.7500 -105.5000 Du        
    811 ****       226.2500 390.7500 -105.2500 Du        
    812 ****       226.2500 390.7500 -105.0000 Du        
    813 ****       226.2500 391.0000 -106.2500 Du        
    814 ****       226.2500 391.0000 -106.0000 Du        
    815 ****       226.2500 391.0000 -105.7500 Du        
    816 ****       226.2500 391.0000 -105.5000 Du        
    817 ****       226.2500 391.0000 -105.2500 Du        
    818 ****       226.2500 391.2500 -106.2500 Du        
    819 ****       226.2500 391.2500 -106.0000 Du        
    820 ****       226.2500 391.2500 -105.7500 Du        
    821 ****       226.2500 391.2500 -105.5000 Du        
    822 ****       226.2500 391.2500 -105.2500 Du        
    823 ****       226.2500 391.5000 -106.2500 Du        
    824 ****       226.2500 391.5000 -106.0000 Du        
    825 ****       226.2500 391.5000 -105.7500 Du        
    826 ****       226.2500 391.5000 -105.5000 Du        
    827 ****       226.2500 391.5000 -105.2500 Du        
    828 ****       226.2500 391.7500 -106.0000 Du        
    829 ****       226.2500 391.7500 -105.7500 Du        
    830 ****       226.2500 391.7500 -105.5000 Du        
    831 ****       226.2500 391.7500 -105.2500 Du        
    832 ****       226.2500 392.0000 -106.0000 Du        
    833 ****       226.2500 392.0000 -105.7500 Du        
    834 ****       226.2500 392.0000 -105.5000 Du        
    835 ****       226.2500 392.0000 -105.2500 Du        
    836 ****       226.2500 392.2500 -105.7500 Du        
    837 ****       226.2500 392.2500 -105.5000 Du        
    838 ****       226.2500 392.2500 -105.2500 Du        
    839 ****       226.2500 392.5000 -105.5000 Du        
    840 ****       226.2500 392.5000 -105.2500 Du        
    841 ****       226.2500 392.7500 -105.2500 Du        
    842 ****       226.5000 384.2500 -116.5000 Du        
    843 ****       226.5000 384.2500 -116.2500 Du        
    844 ****       226.5000 384.2500 -116.0000 Du        
    845 ****       226.5000 384.2500 -115.7500 Du        
    846 ****       226.5000 384.5000 -116.7500 Du        
    847 ****       226.5000 384.5000 -116.5000 Du        
    848 ****       226.5000 384.5000 -116.2500 Du        
    849 ****       226.5000 384.5000 -116.0000 Du        
    850 ****       226.5000 384.5000 -115.7500 Du        
    851 ****       226.5000 384.7500 -117.0000 Du        
    852 ****       226.5000 384.7500 -116.7500 Du        
    853 ****       226.5000 384.7500 -116.5000 Du        
    854 ****       226.5000 384.7500 -116.2500 Du        
    855 ****       226.5000 384.7500 -116.0000 Du        
    856 ****       226.5000 384.7500 -115.7500 Du        
    857 ****       226.5000 384.7500 -115.5000 Du        
    858 ****       226.5000 384.7500 -115.2500 Du        
    859 ****       226.5000 384.7500 -110.5000 Du        
    860 ****       226.5000 384.7500 -110.2500 Du        
    861 ****       226.5000 384.7500 -110.0000 Du        
    862 ****       226.5000 385.0000 -117.2500 Du        
    863 ****       226.5000 385.0000 -117.0000 Du        
    864 ****       226.5000 385.0000 -116.7500 Du        
    865 ****       226.5000 385.0000 -116.5000 Du        
    866 ****       226.5000 385.0000 -116.2500 Du        
    867 ****       226.5000 385.0000 -116.0000 Du        
    868 ****       226.5000 385.0000 -115.7500 Du        
    869 ****       226.5000 385.0000 -110.5000 Du        
    870 ****       226.5000 385.0000 -110.2500 Du        
    871 ****       226.5000 385.0000 -110.0000 Du        
    872 ****       226.5000 385.0000 -109.7500 Du        
    873 ****       226.5000 385.2500 -117.2500 Du        
    874 ****       226.5000 385.2500 -117.0000 Du        
    875 ****       226.5000 385.2500 -116.7500 Du        
    876 ****       226.5000 385.2500 -116.5000 Du        
    877 ****       226.5000 385.2500 -116.2500 Du        
    878 ****       226.5000 385.2500 -116.0000 Du        
    879 ****       226.5000 385.2500 -115.7500 Du        
    880 ****       226.5000 385.2500 -110.5000 Du        
    881 ****       226.5000 385.2500 -110.2500 Du        
    882 ****       226.5000 385.2500 -110.0000 Du        
    883 ****       226.5000 385.2500 -109.7500 Du        
    884 ****       226.5000 385.2500 -109.5000 Du        
    885 ****       226.5000 385.5000 -117.0000 Du        
    886 ****       226.5000 385.5000 -116.7500 Du        
    887 ****       226.5000 385.5000 -116.5000 Du        
    888 ****       226.5000 385.5000 -116.2500 Du        
    889 ****       226.5000 385.5000 -116.0000 Du        
    890 ****       226.5000 385.5000 -115.7500 Du        
    891 ****       226.5000 385.5000 -110.2500 Du        
    892 ****       226.5000 385.5000 -110.0000 Du        
    893 ****       226.5000 385.5000 -109.7500 Du        
    894 ****       226.5000 385.7500 -116.7500 Du        
    895 ****       226.5000 385.7500 -116.5000 Du        
    896 ****       226.5000 385.7500 -116.2500 Du        
    897 ****       226.5000 385.7500 -116.0000 Du        
    898 ****       226.5000 385.7500 -115.7500 Du        
    899 ****       226.5000 385.7500 -110.0000 Du        
    900 ****       226.5000 385.7500 -109.7500 Du        
    901 ****       226.5000 386.0000 -116.0000 Du        
    902 ****       226.5000 386.0000 -109.7500 Du        
    903 ****       226.5000 389.7500 -105.5000 Du        
    904 ****       226.5000 389.7500 -105.2500 Du        
    905 ****       226.5000 389.7500 -105.0000 Du        
    906 ****       226.5000 390.0000 -106.7500 Du        
    907 ****       226.5000 390.0000 -106.5000 Du        
    908 ****       226.5000 390.0000 -106.2500 Du        
    909 ****       226.5000 390.0000 -106.0000 Du        
    910 ****       226.5000 390.0000 -105.7500 Du        
    911 ****       226.5000 390.0000 -105.5000 Du        
    912 ****       226.5000 390.0000 -105.2500 Du        
    913 ****       226.5000 390.0000 -105.0000 Du        
    914 ****       226.5000 390.2500 -106.5000 Du        
    915 ****       226.5000 390.2500 -106.2500 Du        
    916 ****       226.5000 390.2500 -106.0000 Du        
    917 ****       226.5000 390.2500 -105.7500 Du        
    918 ****       226.5000 390.2500 -105.5000 Du        
    919 ****       226.5000 390.2500 -105.2500 Du        
    920 ****       226.5000 390.2500 -105.0000 Du        
    921 ****       226.5000 390.5000 -106.5000 Du        
    922 ****       226.5000 390.5000 -106.2500 Du        
    923 ****       226.5000 390.5000 -106.0000 Du        
    924 ****       226.5000 390.5000 -105.7500 Du        
    925 ****       226.5000 390.5000 -105.5000 Du        
    926 ****       226.5000 390.5000 -105.2500 Du        
    927 ****       226.5000 390.5000 -105.0000 Du        
    928 ****       226.5000 390.7500 -106.5000 Du        
    929 ****       226.5000 390.7500 -106.2500 Du        
    930 ****       226.5000 390.7500 -106.0000 Du        
    931 ****       226.5000 390.7500 -105.7500 Du        
    932 ****       226.5000 390.7500 -105.5000 Du        
    933 ****       226.5000 390.7500 -105.2500 Du        
    934 ****       226.5000 391.0000 -106.2500 Du        
    935 ****       226.5000 391.0000 -106.0000 Du        
    936 ****       226.5000 391.0000 -105.7500 Du        
    937 ****       226.5000 391.0000 -105.5000 Du        
    938 ****       226.5000 391.0000 -105.2500 Du        
    939 ****       226.5000 391.2500 -106.2500 Du        
    940 ****       226.5000 391.2500 -106.0000 Du        
    941 ****       226.5000 391.2500 -105.7500 Du        
    942 ****       226.5000 391.2500 -105.5000 Du        
    943 ****       226.5000 391.2500 -105.2500 Du        
    944 ****       226.5000 391.5000 -106.2500 Du        
    945 ****       226.5000 391.5000 -106.0000 Du        
    946 ****       226.5000 391.5000 -105.7500 Du        
    947 ****       226.5000 391.5000 -105.5000 Du        
    948 ****       226.5000 391.5000 -105.2500 Du        
    949 ****       226.5000 391.7500 -106.0000 Du        
    950 ****       226.5000 391.7500 -105.7500 Du        
    951 ****       226.5000 391.7500 -105.5000 Du        
    952 ****       226.5000 391.7500 -105.2500 Du        
    953 ****       226.5000 392.0000 -105.7500 Du        
    954 ****       226.5000 392.0000 -105.5000 Du        
    955 ****       226.5000 392.0000 -105.2500 Du        
    956 ****       226.5000 392.2500 -105.7500 Du        
    957 ****       226.5000 392.2500 -105.5000 Du        
    958 ****       226.5000 392.2500 -105.2500 Du        
    959 ****       226.5000 392.5000 -105.5000 Du        
    960 ****       226.5000 392.5000 -105.2500 Du        
    961 ****       226.7500 384.0000 -112.0000 Du        
    962 ****       226.7500 384.2500 -116.5000 Du        
    963 ****       226.7500 384.2500 -116.2500 Du        
    964 ****       226.7500 384.2500 -116.0000 Du        
    965 ****       226.7500 384.2500 -115.7500 Du        
    966 ****       226.7500 384.2500 -114.7500 Du        
    967 ****       226.7500 384.2500 -112.0000 Du        
    968 ****       226.7500 384.2500 -111.7500 Du        
    969 ****       226.7500 384.5000 -117.0000 Du        
    970 ****       226.7500 384.5000 -116.7500 Du        
    971 ****       226.7500 384.5000 -116.5000 Du        
    972 ****       226.7500 384.5000 -116.2500 Du        
    973 ****       226.7500 384.5000 -116.0000 Du        
    974 ****       226.7500 384.5000 -115.7500 Du        
    975 ****       226.7500 384.5000 -115.5000 Du        
    976 ****       226.7500 384.5000 -115.2500 Du        
    977 ****       226.7500 384.5000 -115.0000 Du        
    978 ****       226.7500 384.7500 -117.0000 Du        
    979 ****       226.7500 384.7500 -116.7500 Du        
    980 ****       226.7500 384.7500 -116.5000 Du        
    981 ****       226.7500 384.7500 -116.2500 Du        
    982 ****       226.7500 384.7500 -116.0000 Du        
    983 ****       226.7500 384.7500 -115.7500 Du        
    984 ****       226.7500 384.7500 -115.5000 Du        
    985 ****       226.7500 384.7500 -115.2500 Du        
    986 ****       226.7500 384.7500 -115.0000 Du        
    987 ****       226.7500 384.7500 -111.0000 Du        
    988 ****       226.7500 384.7500 -110.7500 Du        
    989 ****       226.7500 384.7500 -110.5000 Du        
    990 ****       226.7500 384.7500 -110.2500 Du        
    991 ****       226.7500 385.0000 -117.2500 Du        
    992 ****       226.7500 385.0000 -117.0000 Du        
    993 ****       226.7500 385.0000 -116.7500 Du        
    994 ****       226.7500 385.0000 -116.5000 Du        
    995 ****       226.7500 385.0000 -116.2500 Du        
    996 ****       226.7500 385.0000 -116.0000 Du        
    997 ****       226.7500 385.0000 -115.7500 Du        
    998 ****       226.7500 385.0000 -115.5000 Du        
    999 ****       226.7500 385.0000 -115.2500 Du        
   1000 ****       226.7500 385.0000 -111.2500 Du        
   1001 ****       226.7500 385.0000 -111.0000 Du        
   1002 ****       226.7500 385.0000 -110.7500 Du        
   1003 ****       226.7500 385.0000 -110.5000 Du        
   1004 ****       226.7500 385.0000 -110.2500 Du        
   1005 ****       226.7500 385.0000 -110.0000 Du        
   1006 ****       226.7500 385.0000 -109.7500 Du        
   1007 ****       226.7500 385.2500 -117.5000 Du        
   1008 ****       226.7500 385.2500 -117.2500 Du        
   1009 ****       226.7500 385.2500 -117.0000 Du        
   1010 ****       226.7500 385.2500 -116.7500 Du        
   1011 ****       226.7500 385.2500 -116.5000 Du        
   1012 ****       226.7500 385.2500 -116.2500 Du        
   1013 ****       226.7500 385.2500 -116.0000 Du        
   1014 ****       226.7500 385.2500 -115.7500 Du        
   1015 ****       226.7500 385.2500 -110.7500 Du        
   1016 ****       226.7500 385.2500 -110.5000 Du        
   1017 ****       226.7500 385.2500 -110.2500 Du        
   1018 ****       226.7500 385.2500 -110.0000 Du        
   1019 ****       226.7500 385.2500 -109.7500 Du        
   1020 ****       226.7500 385.5000 -117.2500 Du        
   1021 ****       226.7500 385.5000 -117.0000 Du        
   1022 ****       226.7500 385.5000 -116.7500 Du        
   1023 ****       226.7500 385.5000 -116.5000 Du        
   1024 ****       226.7500 385.5000 -116.2500 Du        
   1025 ****       226.7500 385.5000 -116.0000 Du        
   1026 ****       226.7500 385.5000 -115.7500 Du        
   1027 ****       226.7500 385.5000 -110.2500 Du        
   1028 ****       226.7500 385.5000 -110.0000 Du        
   1029 ****       226.7500 385.5000 -109.7500 Du        
   1030 ****       226.7500 385.7500 -117.2500 Du        
   1031 ****       226.7500 385.7500 -117.0000 Du        
   1032 ****       226.7500 385.7500 -116.7500 Du        
   1033 ****       226.7500 385.7500 -116.5000 Du        
   1034 ****       226.7500 385.7500 -116.2500 Du        
   1035 ****       226.7500 385.7500 -116.0000 Du        
   1036 ****       226.7500 385.7500 -115.7500 Du        
   1037 ****       226.7500 385.7500 -110.2500 Du        
   1038 ****       226.7500 385.7500 -110.0000 Du        
   1039 ****       226.7500 385.7500 -109.7500 Du        
   1040 ****       226.7500 386.0000 -117.0000 Du        
   1041 ****       226.7500 386.0000 -116.7500 Du        
   1042 ****       226.7500 386.0000 -116.5000 Du        
   1043 ****       226.7500 386.0000 -116.2500 Du        
   1044 ****       226.7500 386.0000 -116.0000 Du        
   1045 ****       226.7500 386.0000 -115.7500 Du        
   1046 ****       226.7500 386.0000 -110.0000 Du        
   1047 ****       226.7500 386.0000 -109.7500 Du        
   1048 ****       226.7500 386.2500 -116.7500 Du        
   1049 ****       226.7500 386.2500 -116.2500 Du        
   1050 ****       226.7500 390.0000 -112.7500 Du        
   1051 ****       226.7500 390.0000 -112.5000 Du        
   1052 ****       226.7500 390.2500 -112.7500 Du        
   1053 ****       226.7500 390.2500 -112.2500 Du        
   1054 ****       226.7500 390.5000 -106.0000 Du        
   1055 ****       226.7500 390.5000 -105.7500 Du        
   1056 ****       226.7500 390.5000 -105.5000 Du        
   1057 ****       226.7500 390.7500 -106.2500 Du        
   1058 ****       226.7500 390.7500 -106.0000 Du        
   1059 ****       226.7500 390.7500 -105.7500 Du        
   1060 ****       226.7500 390.7500 -105.5000 Du        
   1061 ****       226.7500 390.7500 -105.2500 Du        
   1062 ****       226.7500 391.0000 -106.2500 Du        
   1063 ****       226.7500 391.0000 -106.0000 Du        
   1064 ****       226.7500 391.0000 -105.7500 Du        
   1065 ****       226.7500 391.0000 -105.5000 Du        
   1066 ****       226.7500 391.0000 -105.2500 Du        
   1067 ****       226.7500 391.2500 -106.2500 Du        
   1068 ****       226.7500 391.2500 -106.0000 Du        
   1069 ****       226.7500 391.2500 -105.7500 Du        
   1070 ****       226.7500 391.2500 -105.5000 Du        
   1071 ****       226.7500 391.2500 -105.2500 Du        
   1072 ****       226.7500 391.5000 -106.2500 Du        
   1073 ****       226.7500 391.5000 -106.0000 Du        
   1074 ****       226.7500 391.5000 -105.7500 Du        
   1075 ****       226.7500 391.5000 -105.5000 Du        
   1076 ****       226.7500 391.5000 -105.2500 Du        
   1077 ****       226.7500 391.7500 -106.0000 Du        
   1078 ****       226.7500 391.7500 -105.7500 Du        
   1079 ****       226.7500 391.7500 -105.5000 Du        
   1080 ****       226.7500 391.7500 -105.2500 Du        
   1081 ****       226.7500 392.0000 -105.7500 Du        
   1082 ****       226.7500 392.0000 -105.5000 Du        
   1083 ****       226.7500 392.0000 -105.2500 Du        
   1084 ****       226.7500 392.2500 -105.5000 Du        
   1085 ****       226.7500 392.2500 -105.2500 Du        
   1086 ****       226.7500 392.5000 -105.2500 Du        
   1087 ****       227.0000 384.2500 -116.5000 Du        
   1088 ****       227.0000 384.2500 -116.2500 Du        
   1089 ****       227.0000 384.2500 -116.0000 Du        
   1090 ****       227.0000 384.2500 -115.7500 Du        
   1091 ****       227.0000 384.2500 -115.5000 Du        
   1092 ****       227.0000 384.2500 -115.2500 Du        
   1093 ****       227.0000 384.2500 -114.7500 Du        
   1094 ****       227.0000 384.2500 -114.5000 Du        
   1095 ****       227.0000 384.2500 -112.0000 Du        
   1096 ****       227.0000 384.2500 -111.7500 Du        
   1097 ****       227.0000 384.5000 -117.0000 Du        
   1098 ****       227.0000 384.5000 -116.7500 Du        
   1099 ****       227.0000 384.5000 -116.5000 Du        
   1100 ****       227.0000 384.5000 -116.2500 Du        
   1101 ****       227.0000 384.5000 -116.0000 Du        
   1102 ****       227.0000 384.5000 -115.7500 Du        
   1103 ****       227.0000 384.5000 -115.5000 Du        
   1104 ****       227.0000 384.5000 -115.2500 Du        
   1105 ****       227.0000 384.5000 -115.0000 Du        
   1106 ****       227.0000 384.5000 -114.7500 Du        
   1107 ****       227.0000 384.5000 -112.0000 Du        
   1108 ****       227.0000 384.5000 -111.7500 Du        
   1109 ****       227.0000 384.7500 -117.2500 Du        
   1110 ****       227.0000 384.7500 -117.0000 Du        
   1111 ****       227.0000 384.7500 -116.7500 Du        
   1112 ****       227.0000 384.7500 -116.5000 Du        
   1113 ****       227.0000 384.7500 -116.2500 Du        
   1114 ****       227.0000 384.7500 -116.0000 Du        
   1115 ****       227.0000 384.7500 -115.7500 Du        
   1116 ****       227.0000 384.7500 -115.5000 Du        
   1117 ****       227.0000 384.7500 -115.2500 Du        
   1118 ****       227.0000 384.7500 -115.0000 Du        
   1119 ****       227.0000 384.7500 -114.7500 Du        
   1120 ****       227.0000 384.7500 -114.5000 Du        
   1121 ****       227.0000 384.7500 -114.2500 Du        
   1122 ****       227.0000 384.7500 -112.0000 Du        
   1123 ****       227.0000 384.7500 -111.7500 Du        
   1124 ****       227.0000 384.7500 -111.2500 Du        
   1125 ****       227.0000 384.7500 -111.0000 Du        
   1126 ****       227.0000 384.7500 -110.7500 Du        
   1127 ****       227.0000 385.0000 -117.5000 Du        
   1128 ****       227.0000 385.0000 -117.2500 Du        
   1129 ****       227.0000 385.0000 -117.0000 Du        
   1130 ****       227.0000 385.0000 -116.7500 Du        
   1131 ****       227.0000 385.0000 -116.5000 Du        
   1132 ****       227.0000 385.0000 -116.2500 Du        
   1133 ****       227.0000 385.0000 -116.0000 Du        
   1134 ****       227.0000 385.0000 -115.7500 Du        
   1135 ****       227.0000 385.0000 -115.5000 Du        
   1136 ****       227.0000 385.0000 -115.2500 Du        
   1137 ****       227.0000 385.0000 -115.0000 Du        
   1138 ****       227.0000 385.0000 -114.7500 Du        
   1139 ****       227.0000 385.0000 -111.2500 Du        
   1140 ****       227.0000 385.0000 -111.0000 Du        
   1141 ****       227.0000 385.0000 -110.7500 Du        
   1142 ****       227.0000 385.0000 -110.5000 Du        
   1143 ****       227.0000 385.0000 -110.2500 Du        
   1144 ****       227.0000 385.0000 -110.0000 Du        
   1145 ****       227.0000 385.0000 -109.7500 Du        
   1146 ****       227.0000 385.2500 -117.7500 Du        
   1147 ****       227.0000 385.2500 -117.5000 Du        
   1148 ****       227.0000 385.2500 -117.2500 Du        
   1149 ****       227.0000 385.2500 -117.0000 Du        
   1150 ****       227.0000 385.2500 -116.7500 Du        
   1151 ****       227.0000 385.2500 -116.5000 Du        
   1152 ****       227.0000 385.2500 -116.2500 Du        
   1153 ****       227.0000 385.2500 -116.0000 Du        
   1154 ****       227.0000 385.2500 -115.7500 Du        
   1155 ****       227.0000 385.2500 -115.5000 Du        
   1156 ****       227.0000 385.2500 -111.0000 Du        
   1157 ****       227.0000 385.2500 -110.7500 Du        
   1158 ****       227.0000 385.2500 -110.5000 Du        
   1159 ****       227.0000 385.2500 -110.2500 Du        
   1160 ****       227.0000 385.2500 -110.0000 Du        
   1161 ****       227.0000 385.2500 -109.7500 Du        
   1162 ****       227.0000 385.5000 -117.7500 Du        
   1163 ****       227.0000 385.5000 -117.5000 Du        
   1164 ****       227.0000 385.5000 -117.2500 Du        
   1165 ****       227.0000 385.5000 -117.0000 Du        
   1166 ****       227.0000 385.5000 -116.7500 Du        
   1167 ****       227.0000 385.5000 -116.5000 Du        
   1168 ****       227.0000 385.5000 -116.2500 Du        
   1169 ****       227.0000 385.5000 -116.0000 Du        
   1170 ****       227.0000 385.5000 -115.7500 Du        
   1171 ****       227.0000 385.5000 -110.5000 Du        
   1172 ****       227.0000 385.5000 -110.2500 Du        
   1173 ****       227.0000 385.5000 -110.0000 Du        
   1174 ****       227.0000 385.5000 -109.7500 Du        
   1175 ****       227.0000 385.7500 -117.7500 Du        
   1176 ****       227.0000 385.7500 -117.5000 Du        
   1177 ****       227.0000 385.7500 -117.2500 Du        
   1178 ****       227.0000 385.7500 -117.0000 Du        
   1179 ****       227.0000 385.7500 -116.7500 Du        
   1180 ****       227.0000 385.7500 -116.5000 Du        
   1181 ****       227.0000 385.7500 -116.2500 Du        
   1182 ****       227.0000 385.7500 -116.0000 Du        
   1183 ****       227.0000 385.7500 -115.7500 Du        
   1184 ****       227.0000 385.7500 -110.2500 Du        
   1185 ****       227.0000 385.7500 -110.0000 Du        
   1186 ****       227.0000 385.7500 -109.7500 Du        
   1187 ****       227.0000 386.0000 -117.5000 Du        
   1188 ****       227.0000 386.0000 -117.2500 Du        
   1189 ****       227.0000 386.0000 -117.0000 Du        
   1190 ****       227.0000 386.0000 -116.7500 Du        
   1191 ****       227.0000 386.0000 -116.5000 Du        
   1192 ****       227.0000 386.0000 -116.2500 Du        
   1193 ****       227.0000 386.0000 -116.0000 Du        
   1194 ****       227.0000 386.0000 -115.7500 Du        
   1195 ****       227.0000 386.0000 -110.0000 Du        
   1196 ****       227.0000 386.0000 -109.7500 Du        
   1197 ****       227.0000 386.2500 -117.2500 Du        
   1198 ****       227.0000 386.2500 -117.0000 Du        
   1199 ****       227.0000 386.2500 -116.7500 Du        
   1200 ****       227.0000 386.2500 -116.5000 Du        
   1201 ****       227.0000 386.2500 -116.2500 Du        
   1202 ****       227.0000 386.2500 -116.0000 Du        
   1203 ****       227.0000 386.5000 -117.0000 Du        
   1204 ****       227.0000 386.5000 -116.7500 Du        
   1205 ****       227.0000 386.7500 -117.0000 Du        
   1206 ****       227.0000 386.7500 -116.7500 Du        
   1207 ****       227.0000 387.0000 -117.0000 Du        
   1208 ****       227.0000 387.0000 -116.7500 Du        
   1209 ****       227.0000 387.2500 -117.0000 Du        
   1210 ****       227.0000 387.2500 -116.7500 Du        
   1211 ****       227.0000 387.5000 -116.7500 Du        
   1212 ****       227.0000 387.7500 -117.0000 Du        
   1213 ****       227.0000 387.7500 -116.7500 Du        
   1214 ****       227.0000 389.7500 -112.7500 Du        
   1215 ****       227.0000 389.7500 -112.5000 Du        
   1216 ****       227.0000 390.0000 -112.7500 Du        
   1217 ****       227.0000 390.0000 -112.5000 Du        
   1218 ****       227.0000 390.0000 -112.2500 Du        
   1219 ****       227.0000 390.0000 -112.0000 Du        
   1220 ****       227.0000 390.2500 -112.7500 Du        
   1221 ****       227.0000 390.2500 -112.5000 Du        
   1222 ****       227.0000 390.2500 -112.2500 Du        
   1223 ****       227.0000 390.5000 -112.7500 Du        
   1224 ****       227.0000 390.5000 -112.5000 Du        
   1225 ****       227.0000 390.5000 -112.2500 Du        
   1226 ****       227.0000 390.7500 -112.5000 Du        
   1227 ****       227.0000 391.0000 -106.2500 Du        
   1228 ****       227.0000 391.0000 -106.0000 Du        
   1229 ****       227.0000 391.0000 -105.7500 Du        
   1230 ****       227.0000 391.0000 -105.5000 Du        
   1231 ****       227.0000 391.2500 -106.2500 Du        
   1232 ****       227.0000 391.2500 -106.0000 Du        
   1233 ****       227.0000 391.2500 -105.7500 Du        
   1234 ****       227.0000 391.2500 -105.5000 Du        
   1235 ****       227.0000 391.2500 -105.2500 Du        
   1236 ****       227.0000 391.5000 -106.0000 Du        
   1237 ****       227.0000 391.5000 -105.7500 Du        
   1238 ****       227.0000 391.5000 -105.5000 Du        
   1239 ****       227.0000 391.5000 -105.2500 Du        
   1240 ****       227.0000 391.7500 -106.0000 Du        
   1241 ****       227.0000 391.7500 -105.7500 Du        
   1242 ****       227.0000 391.7500 -105.5000 Du        
   1243 ****       227.0000 391.7500 -105.2500 Du        
   1244 ****       227.0000 392.0000 -105.7500 Du        
   1245 ****       227.0000 392.0000 -105.5000 Du        
   1246 ****       227.0000 392.0000 -105.2500 Du        
   1247 ****       227.0000 392.2500 -105.5000 Du        
   1248 ****       227.0000 392.2500 -105.2500 Du        
   1249 ****       227.2500 384.2500 -116.7500 Du        
   1250 ****       227.2500 384.2500 -116.5000 Du        
   1251 ****       227.2500 384.2500 -116.2500 Du        
   1252 ****       227.2500 384.2500 -116.0000 Du        
   1253 ****       227.2500 384.2500 -115.7500 Du        
   1254 ****       227.2500 384.2500 -115.5000 Du        
   1255 ****       227.2500 384.2500 -115.2500 Du        
   1256 ****       227.2500 384.2500 -115.0000 Du        
   1257 ****       227.2500 384.2500 -114.7500 Du        
   1258 ****       227.2500 384.2500 -111.7500 Du        
   1259 ****       227.2500 384.5000 -117.0000 Du        
   1260 ****       227.2500 384.5000 -116.7500 Du        
   1261 ****       227.2500 384.5000 -116.5000 Du        
   1262 ****       227.2500 384.5000 -116.2500 Du        
   1263 ****       227.2500 384.5000 -116.0000 Du        
   1264 ****       227.2500 384.5000 -115.7500 Du        
   1265 ****       227.2500 384.5000 -115.5000 Du        
   1266 ****       227.2500 384.5000 -115.2500 Du        
   1267 ****       227.2500 384.5000 -115.0000 Du        
   1268 ****       227.2500 384.5000 -114.7500 Du        
   1269 ****       227.2500 384.5000 -114.5000 Du        
   1270 ****       227.2500 384.5000 -112.0000 Du        
   1271 ****       227.2500 384.5000 -111.7500 Du        
   1272 ****       227.2500 384.7500 -117.2500 Du        
   1273 ****       227.2500 384.7500 -117.0000 Du        
   1274 ****       227.2500 384.7500 -116.7500 Du        
   1275 ****       227.2500 384.7500 -116.5000 Du        
   1276 ****       227.2500 384.7500 -116.2500 Du        
   1277 ****       227.2500 384.7500 -116.0000 Du        
   1278 ****       227.2500 384.7500 -115.7500 Du        
   1279 ****       227.2500 384.7500 -115.5000 Du        
   1280 ****       227.2500 384.7500 -115.2500 Du        
   1281 ****       227.2500 384.7500 -115.0000 Du        
   1282 ****       227.2500 384.7500 -114.7500 Du        
   1283 ****       227.2500 384.7500 -114.5000 Du        
   1284 ****       227.2500 384.7500 -114.2500 Du        
   1285 ****       227.2500 384.7500 -114.0000 Du        
   1286 ****       227.2500 384.7500 -112.0000 Du        
   1287 ****       227.2500 384.7500 -111.7500 Du        
   1288 ****       227.2500 384.7500 -111.2500 Du        
   1289 ****       227.2500 384.7500 -111.0000 Du        
   1290 ****       227.2500 384.7500 -110.7500 Du        
   1291 ****       227.2500 385.0000 -117.5000 Du        
   1292 ****       227.2500 385.0000 -117.2500 Du        
   1293 ****       227.2500 385.0000 -117.0000 Du        
   1294 ****       227.2500 385.0000 -116.7500 Du        
   1295 ****       227.2500 385.0000 -116.5000 Du        
   1296 ****       227.2500 385.0000 -116.2500 Du        
   1297 ****       227.2500 385.0000 -116.0000 Du        
   1298 ****       227.2500 385.0000 -115.7500 Du        
   1299 ****       227.2500 385.0000 -115.5000 Du        
   1300 ****       227.2500 385.0000 -115.2500 Du        
   1301 ****       227.2500 385.0000 -115.0000 Du        
   1302 ****       227.2500 385.0000 -114.7500 Du        
   1303 ****       227.2500 385.0000 -114.2500 Du        
   1304 ****       227.2500 385.0000 -114.0000 Du        
   1305 ****       227.2500 385.0000 -112.0000 Du        
   1306 ****       227.2500 385.0000 -111.2500 Du        
   1307 ****       227.2500 385.0000 -111.0000 Du        
   1308 ****       227.2500 385.0000 -110.7500 Du        
   1309 ****       227.2500 385.0000 -110.5000 Du        
   1310 ****       227.2500 385.0000 -110.2500 Du        
   1311 ****       227.2500 385.0000 -110.0000 Du        
   1312 ****       227.2500 385.0000 -109.7500 Du        
   1313 ****       227.2500 385.2500 -117.7500 Du        
   1314 ****       227.2500 385.2500 -117.5000 Du        
   1315 ****       227.2500 385.2500 -117.2500 Du        
   1316 ****       227.2500 385.2500 -117.0000 Du        
   1317 ****       227.2500 385.2500 -116.7500 Du        
   1318 ****       227.2500 385.2500 -116.5000 Du        
   1319 ****       227.2500 385.2500 -116.2500 Du        
   1320 ****       227.2500 385.2500 -116.0000 Du        
   1321 ****       227.2500 385.2500 -115.7500 Du        
   1322 ****       227.2500 385.2500 -115.5000 Du        
   1323 ****       227.2500 385.2500 -115.2500 Du        
   1324 ****       227.2500 385.2500 -115.0000 Du        
   1325 ****       227.2500 385.2500 -111.0000 Du        
   1326 ****       227.2500 385.2500 -110.7500 Du        
   1327 ****       227.2500 385.2500 -110.5000 Du        
   1328 ****       227.2500 385.2500 -110.2500 Du        
   1329 ****       227.2500 385.2500 -110.0000 Du        
   1330 ****       227.2500 385.2500 -109.7500 Du        
   1331 ****       227.2500 385.5000 -118.0000 Du        
   1332 ****       227.2500 385.5000 -117.7500 Du        
   1333 ****       227.2500 385.5000 -117.5000 Du        
   1334 ****       227.2500 385.5000 -117.2500 Du        
   1335 ****       227.2500 385.5000 -117.0000 Du        
   1336 ****       227.2500 385.5000 -116.7500 Du        
   1337 ****       227.2500 385.5000 -116.5000 Du        
   1338 ****       227.2500 385.5000 -116.2500 Du        
   1339 ****       227.2500 385.5000 -116.0000 Du        
   1340 ****       227.2500 385.5000 -115.7500 Du        
   1341 ****       227.2500 385.5000 -110.5000 Du        
   1342 ****       227.2500 385.5000 -110.2500 Du        
   1343 ****       227.2500 385.5000 -110.0000 Du        
   1344 ****       227.2500 385.5000 -109.7500 Du        
   1345 ****       227.2500 385.7500 -118.0000 Du        
   1346 ****       227.2500 385.7500 -117.7500 Du        
   1347 ****       227.2500 385.7500 -117.5000 Du        
   1348 ****       227.2500 385.7500 -117.2500 Du        
   1349 ****       227.2500 385.7500 -117.0000 Du        
   1350 ****       227.2500 385.7500 -116.7500 Du        
   1351 ****       227.2500 385.7500 -116.5000 Du        
   1352 ****       227.2500 385.7500 -116.2500 Du        
   1353 ****       227.2500 385.7500 -116.0000 Du        
   1354 ****       227.2500 385.7500 -115.7500 Du        
   1355 ****       227.2500 385.7500 -110.2500 Du        
   1356 ****       227.2500 385.7500 -110.0000 Du        
   1357 ****       227.2500 385.7500 -109.7500 Du        
   1358 ****       227.2500 386.0000 -118.0000 Du        
   1359 ****       227.2500 386.0000 -117.7500 Du        
   1360 ****       227.2500 386.0000 -117.5000 Du        
   1361 ****       227.2500 386.0000 -117.2500 Du        
   1362 ****       227.2500 386.0000 -117.0000 Du        
   1363 ****       227.2500 386.0000 -116.7500 Du        
   1364 ****       227.2500 386.0000 -116.5000 Du        
   1365 ****       227.2500 386.0000 -116.2500 Du        
   1366 ****       227.2500 386.0000 -116.0000 Du        
   1367 ****       227.2500 386.0000 -110.2500 Du        
   1368 ****       227.2500 386.0000 -110.0000 Du        
   1369 ****       227.2500 386.0000 -109.7500 Du        
   1370 ****       227.2500 386.2500 -118.0000 Du        
   1371 ****       227.2500 386.2500 -117.7500 Du        
   1372 ****       227.2500 386.2500 -117.5000 Du        
   1373 ****       227.2500 386.2500 -117.2500 Du        
   1374 ****       227.2500 386.2500 -117.0000 Du        
   1375 ****       227.2500 386.2500 -116.7500 Du        
   1376 ****       227.2500 386.2500 -116.5000 Du        
   1377 ****       227.2500 386.2500 -116.2500 Du        
   1378 ****       227.2500 386.2500 -116.0000 Du        
   1379 ****       227.2500 386.5000 -117.5000 Du        
   1380 ****       227.2500 386.5000 -117.2500 Du        
   1381 ****       227.2500 386.5000 -117.0000 Du        
   1382 ****       227.2500 386.5000 -116.7500 Du        
   1383 ****       227.2500 386.7500 -117.5000 Du        
   1384 ****       227.2500 386.7500 -117.2500 Du        
   1385 ****       227.2500 386.7500 -117.0000 Du        
   1386 ****       227.2500 386.7500 -116.7500 Du        
   1387 ****       227.2500 387.0000 -117.5000 Du        
   1388 ****       227.2500 387.0000 -117.2500 Du        
   1389 ****       227.2500 387.0000 -117.0000 Du        
   1390 ****       227.2500 387.0000 -116.7500 Du        
   1391 ****       227.2500 387.2500 -117.5000 Du        
   1392 ****       227.2500 387.2500 -117.2500 Du        
   1393 ****       227.2500 387.2500 -117.0000 Du        
   1394 ****       227.2500 387.2500 -116.7500 Du        
   1395 ****       227.2500 387.5000 -117.2500 Du        
   1396 ****       227.2500 387.7500 -117.2500 Du        
   1397 ****       227.2500 387.7500 -117.0000 Du        
   1398 ****       227.2500 388.0000 -117.7500 Du        
   1399 ****       227.2500 388.0000 -117.5000 Du        
   1400 ****       227.2500 388.0000 -117.2500 Du        
   1401 ****       227.2500 389.7500 -112.7500 Du        
   1402 ****       227.2500 389.7500 -112.5000 Du        
   1403 ****       227.2500 390.0000 -112.7500 Du        
   1404 ****       227.2500 390.0000 -112.5000 Du        
   1405 ****       227.2500 390.0000 -112.2500 Du        
   1406 ****       227.2500 390.0000 -112.0000 Du        
   1407 ****       227.2500 390.2500 -112.7500 Du        
   1408 ****       227.2500 390.2500 -112.5000 Du        
   1409 ****       227.2500 390.2500 -112.2500 Du        
   1410 ****       227.2500 390.2500 -112.0000 Du        
   1411 ****       227.2500 390.5000 -112.7500 Du        
   1412 ****       227.2500 390.5000 -112.5000 Du        
   1413 ****       227.2500 390.5000 -112.2500 Du        
   1414 ****       227.2500 390.5000 -112.0000 Du        
   1415 ****       227.2500 390.7500 -112.7500 Du        
   1416 ****       227.2500 390.7500 -112.5000 Du        
   1417 ****       227.2500 390.7500 -112.2500 Du        
   1418 ****       227.2500 390.7500 -112.0000 Du        
   1419 ****       227.2500 391.0000 -112.5000 Du        
   1420 ****       227.2500 391.0000 -112.2500 Du        
   1421 ****       227.2500 391.2500 -106.0000 Du        
   1422 ****       227.2500 391.2500 -105.7500 Du        
   1423 ****       227.2500 391.2500 -105.5000 Du        
   1424 ****       227.2500 391.5000 -106.0000 Du        
   1425 ****       227.2500 391.5000 -105.7500 Du        
   1426 ****       227.2500 391.5000 -105.5000 Du        
   1427 ****       227.2500 391.7500 -106.0000 Du        
   1428 ****       227.2500 391.7500 -105.7500 Du        
   1429 ****       227.2500 391.7500 -105.5000 Du        
   1430 ****       227.2500 392.0000 -105.7500 Du        
   1431 ****       227.2500 392.0000 -105.5000 Du        
   1432 ****       227.2500 392.2500 -105.5000 Du        
   1433 ****       227.5000 384.2500 -116.7500 Du        
   1434 ****       227.5000 384.2500 -116.5000 Du        
   1435 ****       227.5000 384.2500 -116.2500 Du        
   1436 ****       227.5000 384.2500 -116.0000 Du        
   1437 ****       227.5000 384.2500 -115.7500 Du        
   1438 ****       227.5000 384.2500 -115.5000 Du        
   1439 ****       227.5000 384.2500 -115.2500 Du        
   1440 ****       227.5000 384.2500 -115.0000 Du        
   1441 ****       227.5000 384.5000 -117.0000 Du        
   1442 ****       227.5000 384.5000 -116.7500 Du        
   1443 ****       227.5000 384.5000 -116.5000 Du        
   1444 ****       227.5000 384.5000 -116.2500 Du        
   1445 ****       227.5000 384.5000 -116.0000 Du        
   1446 ****       227.5000 384.5000 -115.7500 Du        
   1447 ****       227.5000 384.5000 -115.5000 Du        
   1448 ****       227.5000 384.5000 -115.2500 Du        
   1449 ****       227.5000 384.5000 -115.0000 Du        
   1450 ****       227.5000 384.5000 -114.7500 Du        
   1451 ****       227.5000 384.5000 -112.0000 Du        
   1452 ****       227.5000 384.5000 -111.7500 Du        
   1453 ****       227.5000 384.7500 -117.2500 Du        
   1454 ****       227.5000 384.7500 -117.0000 Du        
   1455 ****       227.5000 384.7500 -116.7500 Du        
   1456 ****       227.5000 384.7500 -116.5000 Du        
   1457 ****       227.5000 384.7500 -116.2500 Du        
   1458 ****       227.5000 384.7500 -116.0000 Du        
   1459 ****       227.5000 384.7500 -115.7500 Du        
   1460 ****       227.5000 384.7500 -115.5000 Du        
   1461 ****       227.5000 384.7500 -115.2500 Du        
   1462 ****       227.5000 384.7500 -115.0000 Du        
   1463 ****       227.5000 384.7500 -114.7500 Du        
   1464 ****       227.5000 384.7500 -114.5000 Du        
   1465 ****       227.5000 384.7500 -112.2500 Du        
   1466 ****       227.5000 384.7500 -112.0000 Du        
   1467 ****       227.5000 384.7500 -111.7500 Du        
   1468 ****       227.5000 384.7500 -111.5000 Du        
   1469 ****       227.5000 384.7500 -111.2500 Du        
   1470 ****       227.5000 384.7500 -111.0000 Du        
   1471 ****       227.5000 385.0000 -117.5000 Du        
   1472 ****       227.5000 385.0000 -117.2500 Du        
   1473 ****       227.5000 385.0000 -117.0000 Du        
   1474 ****       227.5000 385.0000 -116.7500 Du        
   1475 ****       227.5000 385.0000 -116.5000 Du        
   1476 ****       227.5000 385.0000 -116.2500 Du        
   1477 ****       227.5000 385.0000 -116.0000 Du        
   1478 ****       227.5000 385.0000 -115.7500 Du        
   1479 ****       227.5000 385.0000 -115.5000 Du        
   1480 ****       227.5000 385.0000 -115.2500 Du        
   1481 ****       227.5000 385.0000 -115.0000 Du        
   1482 ****       227.5000 385.0000 -114.7500 Du        
   1483 ****       227.5000 385.0000 -112.0000 Du        
   1484 ****       227.5000 385.0000 -111.7500 Du        
   1485 ****       227.5000 385.0000 -111.5000 Du        
   1486 ****       227.5000 385.0000 -111.2500 Du        
   1487 ****       227.5000 385.0000 -111.0000 Du        
   1488 ****       227.5000 385.0000 -110.7500 Du        
   1489 ****       227.5000 385.0000 -110.5000 Du        
   1490 ****       227.5000 385.0000 -110.2500 Du        
   1491 ****       227.5000 385.0000 -110.0000 Du        
   1492 ****       227.5000 385.2500 -117.7500 Du        
   1493 ****       227.5000 385.2500 -117.5000 Du        
   1494 ****       227.5000 385.2500 -117.2500 Du        
   1495 ****       227.5000 385.2500 -117.0000 Du        
   1496 ****       227.5000 385.2500 -116.7500 Du        
   1497 ****       227.5000 385.2500 -116.5000 Du        
   1498 ****       227.5000 385.2500 -116.2500 Du        
   1499 ****       227.5000 385.2500 -116.0000 Du        
   1500 ****       227.5000 385.2500 -115.7500 Du        
   1501 ****       227.5000 385.2500 -115.5000 Du        
   1502 ****       227.5000 385.2500 -111.5000 Du        
   1503 ****       227.5000 385.2500 -111.2500 Du        
   1504 ****       227.5000 385.2500 -111.0000 Du        
   1505 ****       227.5000 385.2500 -110.7500 Du        
   1506 ****       227.5000 385.2500 -110.5000 Du        
   1507 ****       227.5000 385.2500 -110.2500 Du        
   1508 ****       227.5000 385.2500 -110.0000 Du        
   1509 ****       227.5000 385.2500 -109.7500 Du        
   1510 ****       227.5000 385.5000 -118.0000 Du        
   1511 ****       227.5000 385.5000 -117.7500 Du        
   1512 ****       227.5000 385.5000 -117.5000 Du        
   1513 ****       227.5000 385.5000 -117.2500 Du        
   1514 ****       227.5000 385.5000 -117.0000 Du        
   1515 ****       227.5000 385.5000 -116.7500 Du        
   1516 ****       227.5000 385.5000 -116.5000 Du        
   1517 ****       227.5000 385.5000 -116.2500 Du        
   1518 ****       227.5000 385.5000 -116.0000 Du        
   1519 ****       227.5000 385.5000 -115.7500 Du        
   1520 ****       227.5000 385.5000 -110.5000 Du        
   1521 ****       227.5000 385.5000 -110.2500 Du        
   1522 ****       227.5000 385.5000 -110.0000 Du        
   1523 ****       227.5000 385.7500 -118.2500 Du        
   1524 ****       227.5000 385.7500 -118.0000 Du        
   1525 ****       227.5000 385.7500 -117.7500 Du        
   1526 ****       227.5000 385.7500 -117.5000 Du        
   1527 ****       227.5000 385.7500 -117.2500 Du        
   1528 ****       227.5000 385.7500 -117.0000 Du        
   1529 ****       227.5000 385.7500 -116.7500 Du        
   1530 ****       227.5000 385.7500 -116.5000 Du        
   1531 ****       227.5000 385.7500 -116.2500 Du        
   1532 ****       227.5000 385.7500 -116.0000 Du        
   1533 ****       227.5000 385.7500 -115.7500 Du        
   1534 ****       227.5000 385.7500 -110.5000 Du        
   1535 ****       227.5000 385.7500 -110.2500 Du        
   1536 ****       227.5000 385.7500 -110.0000 Du        
   1537 ****       227.5000 385.7500 -109.7500 Du        
   1538 ****       227.5000 386.0000 -118.2500 Du        
   1539 ****       227.5000 386.0000 -118.0000 Du        
   1540 ****       227.5000 386.0000 -117.7500 Du        
   1541 ****       227.5000 386.0000 -117.5000 Du        
   1542 ****       227.5000 386.0000 -117.2500 Du        
   1543 ****       227.5000 386.0000 -117.0000 Du        
   1544 ****       227.5000 386.0000 -116.7500 Du        
   1545 ****       227.5000 386.0000 -116.5000 Du        
   1546 ****       227.5000 386.0000 -116.2500 Du        
   1547 ****       227.5000 386.0000 -110.5000 Du        
   1548 ****       227.5000 386.0000 -110.2500 Du        
   1549 ****       227.5000 386.0000 -110.0000 Du        
   1550 ****       227.5000 386.2500 -118.2500 Du        
   1551 ****       227.5000 386.2500 -118.0000 Du        
   1552 ****       227.5000 386.2500 -117.7500 Du        
   1553 ****       227.5000 386.2500 -117.5000 Du        
   1554 ****       227.5000 386.2500 -117.2500 Du        
   1555 ****       227.5000 386.2500 -117.0000 Du        
   1556 ****       227.5000 386.2500 -116.7500 Du        
   1557 ****       227.5000 386.2500 -116.5000 Du        
   1558 ****       227.5000 386.2500 -110.5000 Du        
   1559 ****       227.5000 386.2500 -110.2500 Du        
   1560 ****       227.5000 386.2500 -110.0000 Du        
   1561 ****       227.5000 386.5000 -118.0000 Du        
   1562 ****       227.5000 386.5000 -117.7500 Du        
   1563 ****       227.5000 386.5000 -117.5000 Du        
   1564 ****       227.5000 386.5000 -117.2500 Du        
   1565 ****       227.5000 386.5000 -117.0000 Du        
   1566 ****       227.5000 386.5000 -116.7500 Du        
   1567 ****       227.5000 386.7500 -118.0000 Du        
   1568 ****       227.5000 386.7500 -117.7500 Du        
   1569 ****       227.5000 386.7500 -117.5000 Du        
   1570 ****       227.5000 386.7500 -117.2500 Du        
   1571 ****       227.5000 386.7500 -117.0000 Du        
   1572 ****       227.5000 386.7500 -116.7500 Du        
   1573 ****       227.5000 386.7500 -116.5000 Du        
   1574 ****       227.5000 387.0000 -118.0000 Du        
   1575 ****       227.5000 387.0000 -117.7500 Du        
   1576 ****       227.5000 387.0000 -117.5000 Du        
   1577 ****       227.5000 387.0000 -117.2500 Du        
   1578 ****       227.5000 387.0000 -117.0000 Du        
   1579 ****       227.5000 387.0000 -116.7500 Du        
   1580 ****       227.5000 387.2500 -118.0000 Du        
   1581 ****       227.5000 387.2500 -117.7500 Du        
   1582 ****       227.5000 387.2500 -117.5000 Du        
   1583 ****       227.5000 387.2500 -117.2500 Du        
   1584 ****       227.5000 387.2500 -117.0000 Du        
   1585 ****       227.5000 387.2500 -116.7500 Du        
   1586 ****       227.5000 387.5000 -118.0000 Du        
   1587 ****       227.5000 387.5000 -117.7500 Du        
   1588 ****       227.5000 387.5000 -117.5000 Du        
   1589 ****       227.5000 387.5000 -117.2500 Du        
   1590 ****       227.5000 387.5000 -117.0000 Du        
   1591 ****       227.5000 387.5000 -116.7500 Du        
   1592 ****       227.5000 387.7500 -118.0000 Du        
   1593 ****       227.5000 387.7500 -117.7500 Du        
   1594 ****       227.5000 387.7500 -117.5000 Du        
   1595 ****       227.5000 387.7500 -117.2500 Du        
   1596 ****       227.5000 387.7500 -117.0000 Du        
   1597 ****       227.5000 387.7500 -116.7500 Du        
   1598 ****       227.5000 388.0000 -118.0000 Du        
   1599 ****       227.5000 388.0000 -117.7500 Du        
   1600 ****       227.5000 388.0000 -117.5000 Du        
   1601 ****       227.5000 388.0000 -117.2500 Du        
   1602 ****       227.5000 388.0000 -117.0000 Du        
   1603 ****       227.5000 388.2500 -118.0000 Du        
   1604 ****       227.5000 388.2500 -117.7500 Du        
   1605 ****       227.5000 389.7500 -112.7500 Du        
   1606 ****       227.5000 389.7500 -112.2500 Du        
   1607 ****       227.5000 390.0000 -112.7500 Du        
   1608 ****       227.5000 390.0000 -112.5000 Du        
   1609 ****       227.5000 390.0000 -112.2500 Du        
   1610 ****       227.5000 390.0000 -112.0000 Du        
   1611 ****       227.5000 390.0000 -111.7500 Du        
   1612 ****       227.5000 390.2500 -112.7500 Du        
   1613 ****       227.5000 390.2500 -112.5000 Du        
   1614 ****       227.5000 390.2500 -112.2500 Du        
   1615 ****       227.5000 390.2500 -112.0000 Du        
   1616 ****       227.5000 390.2500 -111.7500 Du        
   1617 ****       227.5000 390.5000 -112.7500 Du        
   1618 ****       227.5000 390.5000 -112.5000 Du        
   1619 ****       227.5000 390.5000 -112.2500 Du        
   1620 ****       227.5000 390.5000 -112.0000 Du        
   1621 ****       227.5000 390.5000 -111.7500 Du        
   1622 ****       227.5000 390.7500 -112.7500 Du        
   1623 ****       227.5000 390.7500 -112.5000 Du        
   1624 ****       227.5000 390.7500 -112.2500 Du        
   1625 ****       227.5000 390.7500 -112.0000 Du        
   1626 ****       227.5000 390.7500 -111.7500 Du        
   1627 ****       227.5000 391.0000 -112.7500 Du        
   1628 ****       227.5000 391.0000 -112.5000 Du        
   1629 ****       227.5000 391.0000 -112.2500 Du        
   1630 ****       227.5000 391.0000 -112.0000 Du        
   1631 ****       227.5000 391.2500 -112.5000 Du        
   1632 ****       227.5000 391.2500 -112.2500 Du        
   1633 ****       227.5000 391.5000 -105.7500 Du        
   1634 ****       227.5000 391.7500 -106.0000 Du        
   1635 ****       227.5000 391.7500 -105.7500 Du        
   1636 ****       227.5000 391.7500 -105.5000 Du        
   1637 ****       227.5000 392.0000 -105.7500 Du        
   1638 ****       227.5000 392.0000 -105.5000 Du        
   1639 ****       227.7500 384.2500 -116.7500 Du        
   1640 ****       227.7500 384.2500 -116.5000 Du        
   1641 ****       227.7500 384.2500 -116.2500 Du        
   1642 ****       227.7500 384.2500 -116.0000 Du        
   1643 ****       227.7500 384.2500 -115.7500 Du        
   1644 ****       227.7500 384.2500 -115.5000 Du        
   1645 ****       227.7500 384.2500 -115.2500 Du        
   1646 ****       227.7500 384.2500 -115.0000 Du        
   1647 ****       227.7500 384.5000 -117.0000 Du        
   1648 ****       227.7500 384.5000 -116.7500 Du        
   1649 ****       227.7500 384.5000 -116.5000 Du        
   1650 ****       227.7500 384.5000 -116.2500 Du        
   1651 ****       227.7500 384.5000 -116.0000 Du        
   1652 ****       227.7500 384.5000 -115.7500 Du        
   1653 ****       227.7500 384.5000 -115.5000 Du        
   1654 ****       227.7500 384.5000 -115.2500 Du        
   1655 ****       227.7500 384.5000 -115.0000 Du        
   1656 ****       227.7500 384.5000 -114.7500 Du        
   1657 ****       227.7500 384.7500 -117.2500 Du        
   1658 ****       227.7500 384.7500 -117.0000 Du        
   1659 ****       227.7500 384.7500 -116.7500 Du        
   1660 ****       227.7500 384.7500 -116.5000 Du        
   1661 ****       227.7500 384.7500 -116.2500 Du        
   1662 ****       227.7500 384.7500 -116.0000 Du        
   1663 ****       227.7500 384.7500 -115.7500 Du        
   1664 ****       227.7500 384.7500 -115.5000 Du        
   1665 ****       227.7500 384.7500 -115.2500 Du        
   1666 ****       227.7500 384.7500 -115.0000 Du        
   1667 ****       227.7500 384.7500 -114.7500 Du        
   1668 ****       227.7500 385.0000 -117.5000 Du        
   1669 ****       227.7500 385.0000 -117.2500 Du        
   1670 ****       227.7500 385.0000 -117.0000 Du        
   1671 ****       227.7500 385.0000 -116.7500 Du        
   1672 ****       227.7500 385.0000 -116.5000 Du        
   1673 ****       227.7500 385.0000 -116.2500 Du        
   1674 ****       227.7500 385.0000 -116.0000 Du        
   1675 ****       227.7500 385.0000 -115.7500 Du        
   1676 ****       227.7500 385.0000 -115.5000 Du        
   1677 ****       227.7500 385.0000 -115.2500 Du        
   1678 ****       227.7500 385.0000 -115.0000 Du        
   1679 ****       227.7500 385.0000 -114.7500 Du        
   1680 ****       227.7500 385.0000 -110.5000 Du        
   1681 ****       227.7500 385.0000 -110.2500 Du        
   1682 ****       227.7500 385.2500 -118.0000 Du        
   1683 ****       227.7500 385.2500 -117.7500 Du        
   1684 ****       227.7500 385.2500 -117.5000 Du        
   1685 ****       227.7500 385.2500 -117.2500 Du        
   1686 ****       227.7500 385.2500 -117.0000 Du        
   1687 ****       227.7500 385.2500 -116.7500 Du        
   1688 ****       227.7500 385.2500 -116.5000 Du        
   1689 ****       227.7500 385.2500 -116.2500 Du        
   1690 ****       227.7500 385.2500 -116.0000 Du        
   1691 ****       227.7500 385.2500 -115.7500 Du        
   1692 ****       227.7500 385.2500 -110.7500 Du        
   1693 ****       227.7500 385.2500 -110.5000 Du        
   1694 ****       227.7500 385.2500 -110.2500 Du        
   1695 ****       227.7500 385.2500 -110.0000 Du        
   1696 ****       227.7500 385.5000 -118.2500 Du        
   1697 ****       227.7500 385.5000 -118.0000 Du        
   1698 ****       227.7500 385.5000 -117.7500 Du        
   1699 ****       227.7500 385.5000 -117.5000 Du        
   1700 ****       227.7500 385.5000 -117.2500 Du        
   1701 ****       227.7500 385.5000 -117.0000 Du        
   1702 ****       227.7500 385.5000 -116.7500 Du        
   1703 ****       227.7500 385.5000 -116.5000 Du        
   1704 ****       227.7500 385.5000 -116.2500 Du        
   1705 ****       227.7500 385.5000 -116.0000 Du        
   1706 ****       227.7500 385.5000 -110.5000 Du        
   1707 ****       227.7500 385.5000 -110.2500 Du        
   1708 ****       227.7500 385.5000 -110.0000 Du        
   1709 ****       227.7500 385.5000 -109.7500 Du        
   1710 ****       227.7500 385.7500 -118.5000 Du        
   1711 ****       227.7500 385.7500 -118.2500 Du        
   1712 ****       227.7500 385.7500 -118.0000 Du        
   1713 ****       227.7500 385.7500 -117.7500 Du        
   1714 ****       227.7500 385.7500 -117.5000 Du        
   1715 ****       227.7500 385.7500 -117.2500 Du        
   1716 ****       227.7500 385.7500 -117.0000 Du        
   1717 ****       227.7500 385.7500 -116.7500 Du        
   1718 ****       227.7500 385.7500 -116.5000 Du        
   1719 ****       227.7500 385.7500 -116.2500 Du        
   1720 ****       227.7500 385.7500 -116.0000 Du        
   1721 ****       227.7500 385.7500 -110.5000 Du        
   1722 ****       227.7500 385.7500 -110.2500 Du        
   1723 ****       227.7500 385.7500 -110.0000 Du        
   1724 ****       227.7500 385.7500 -109.7500 Du        
   1725 ****       227.7500 386.0000 -118.5000 Du        
   1726 ****       227.7500 386.0000 -118.2500 Du        
   1727 ****       227.7500 386.0000 -118.0000 Du        
   1728 ****       227.7500 386.0000 -117.7500 Du        
   1729 ****       227.7500 386.0000 -117.5000 Du        
   1730 ****       227.7500 386.0000 -117.2500 Du        
   1731 ****       227.7500 386.0000 -117.0000 Du        
   1732 ****       227.7500 386.0000 -116.7500 Du        
   1733 ****       227.7500 386.0000 -116.5000 Du        
   1734 ****       227.7500 386.0000 -116.2500 Du        
   1735 ****       227.7500 386.0000 -110.5000 Du        
   1736 ****       227.7500 386.0000 -110.2500 Du        
   1737 ****       227.7500 386.0000 -110.0000 Du        
   1738 ****       227.7500 386.0000 -109.7500 Du        
   1739 ****       227.7500 386.2500 -118.5000 Du        
   1740 ****       227.7500 386.2500 -118.2500 Du        
   1741 ****       227.7500 386.2500 -118.0000 Du        
   1742 ****       227.7500 386.2500 -117.7500 Du        
   1743 ****       227.7500 386.2500 -117.5000 Du        
   1744 ****       227.7500 386.2500 -117.2500 Du        
   1745 ****       227.7500 386.2500 -117.0000 Du        
   1746 ****       227.7500 386.2500 -116.7500 Du        
   1747 ****       227.7500 386.2500 -116.5000 Du        
   1748 ****       227.7500 386.2500 -116.2500 Du        
   1749 ****       227.7500 386.2500 -110.5000 Du        
   1750 ****       227.7500 386.2500 -110.2500 Du        
   1751 ****       227.7500 386.2500 -110.0000 Du        
   1752 ****       227.7500 386.5000 -118.2500 Du        
   1753 ****       227.7500 386.5000 -118.0000 Du        
   1754 ****       227.7500 386.5000 -117.7500 Du        
   1755 ****       227.7500 386.5000 -117.5000 Du        
   1756 ****       227.7500 386.5000 -117.2500 Du        
   1757 ****       227.7500 386.5000 -117.0000 Du        
   1758 ****       227.7500 386.5000 -116.7500 Du        
   1759 ****       227.7500 386.5000 -110.0000 Du        
   1760 ****       227.7500 386.7500 -118.2500 Du        
   1761 ****       227.7500 386.7500 -118.0000 Du        
   1762 ****       227.7500 386.7500 -117.7500 Du        
   1763 ****       227.7500 386.7500 -117.5000 Du        
   1764 ****       227.7500 386.7500 -117.2500 Du        
   1765 ****       227.7500 386.7500 -117.0000 Du        
   1766 ****       227.7500 386.7500 -116.7500 Du        
   1767 ****       227.7500 387.0000 -118.2500 Du        
   1768 ****       227.7500 387.0000 -118.0000 Du        
   1769 ****       227.7500 387.0000 -117.7500 Du        
   1770 ****       227.7500 387.0000 -117.5000 Du        
   1771 ****       227.7500 387.0000 -117.2500 Du        
   1772 ****       227.7500 387.0000 -117.0000 Du        
   1773 ****       227.7500 387.0000 -116.7500 Du        
   1774 ****       227.7500 387.0000 -116.5000 Du        
   1775 ****       227.7500 387.2500 -118.2500 Du        
   1776 ****       227.7500 387.2500 -118.0000 Du        
   1777 ****       227.7500 387.2500 -117.7500 Du        
   1778 ****       227.7500 387.2500 -117.5000 Du        
   1779 ****       227.7500 387.2500 -117.2500 Du        
   1780 ****       227.7500 387.2500 -117.0000 Du        
   1781 ****       227.7500 387.2500 -116.7500 Du        
   1782 ****       227.7500 387.5000 -118.2500 Du        
   1783 ****       227.7500 387.5000 -118.0000 Du        
   1784 ****       227.7500 387.5000 -117.7500 Du        
   1785 ****       227.7500 387.5000 -117.5000 Du        
   1786 ****       227.7500 387.5000 -117.2500 Du        
   1787 ****       227.7500 387.5000 -117.0000 Du        
   1788 ****       227.7500 387.5000 -116.7500 Du        
   1789 ****       227.7500 387.7500 -118.2500 Du        
   1790 ****       227.7500 387.7500 -118.0000 Du        
   1791 ****       227.7500 387.7500 -117.7500 Du        
   1792 ****       227.7500 387.7500 -117.5000 Du        
   1793 ****       227.7500 387.7500 -117.2500 Du        
   1794 ****       227.7500 387.7500 -117.0000 Du        
   1795 ****       227.7500 387.7500 -116.7500 Du        
   1796 ****       227.7500 388.0000 -118.2500 Du        
   1797 ****       227.7500 388.0000 -118.0000 Du        
   1798 ****       227.7500 388.0000 -117.7500 Du        
   1799 ****       227.7500 388.0000 -117.5000 Du        
   1800 ****       227.7500 388.0000 -117.2500 Du        
   1801 ****       227.7500 388.0000 -117.0000 Du        
   1802 ****       227.7500 388.2500 -118.5000 Du        
   1803 ****       227.7500 388.2500 -118.2500 Du        
   1804 ****       227.7500 388.2500 -118.0000 Du        
   1805 ****       227.7500 388.2500 -117.7500 Du        
   1806 ****       227.7500 388.2500 -117.5000 Du        
   1807 ****       227.7500 388.5000 -118.7500 Du        
   1808 ****       227.7500 388.5000 -118.5000 Du        
   1809 ****       227.7500 388.5000 -118.2500 Du        
   1810 ****       227.7500 388.7500 -118.7500 Du        
   1811 ****       227.7500 389.0000 -119.0000 Du        
   1812 ****       227.7500 389.0000 -118.7500 Du        
   1813 ****       227.7500 389.2500 -119.2500 Du        
   1814 ****       227.7500 389.2500 -119.0000 Du        
   1815 ****       227.7500 389.7500 -112.7500 Du        
   1816 ****       227.7500 389.7500 -112.5000 Du        
   1817 ****       227.7500 389.7500 -112.2500 Du        
   1818 ****       227.7500 389.7500 -112.0000 Du        
   1819 ****       227.7500 389.7500 -111.5000 Du        
   1820 ****       227.7500 389.7500 -111.2500 Du        
   1821 ****       227.7500 390.0000 -113.0000 Du        
   1822 ****       227.7500 390.0000 -112.7500 Du        
   1823 ****       227.7500 390.0000 -112.5000 Du        
   1824 ****       227.7500 390.0000 -112.2500 Du        
   1825 ****       227.7500 390.0000 -112.0000 Du        
   1826 ****       227.7500 390.0000 -111.7500 Du        
   1827 ****       227.7500 390.0000 -111.5000 Du        
   1828 ****       227.7500 390.2500 -112.7500 Du        
   1829 ****       227.7500 390.2500 -112.5000 Du        
   1830 ****       227.7500 390.2500 -112.2500 Du        
   1831 ****       227.7500 390.2500 -112.0000 Du        
   1832 ****       227.7500 390.2500 -111.7500 Du        
   1833 ****       227.7500 390.2500 -111.5000 Du        
   1834 ****       227.7500 390.5000 -112.7500 Du        
   1835 ****       227.7500 390.5000 -112.5000 Du        
   1836 ****       227.7500 390.5000 -112.2500 Du        
   1837 ****       227.7500 390.5000 -112.0000 Du        
   1838 ****       227.7500 390.5000 -111.7500 Du        
   1839 ****       227.7500 390.5000 -111.5000 Du        
   1840 ****       227.7500 390.7500 -112.7500 Du        
   1841 ****       227.7500 390.7500 -112.5000 Du        
   1842 ****       227.7500 390.7500 -112.2500 Du        
   1843 ****       227.7500 390.7500 -112.0000 Du        
   1844 ****       227.7500 390.7500 -111.7500 Du        
   1845 ****       227.7500 391.0000 -112.7500 Du        
   1846 ****       227.7500 391.0000 -112.5000 Du        
   1847 ****       227.7500 391.0000 -112.2500 Du        
   1848 ****       227.7500 391.0000 -112.0000 Du        
   1849 ****       227.7500 391.0000 -111.7500 Du        
   1850 ****       227.7500 391.2500 -112.7500 Du        
   1851 ****       227.7500 391.2500 -112.5000 Du        
   1852 ****       227.7500 391.2500 -112.2500 Du        
   1853 ****       227.7500 391.2500 -112.0000 Du        
   1854 ****       227.7500 391.2500 -111.7500 Du        
   1855 ****       227.7500 391.5000 -112.5000 Du        
   1856 ****       227.7500 391.5000 -112.2500 Du        
   1857 ****       227.7500 391.5000 -112.0000 Du        
   1858 ****       227.7500 391.7500 -112.2500 Du        
   1859 ****       228.0000 384.2500 -116.7500 Du        
   1860 ****       228.0000 384.2500 -116.5000 Du        
   1861 ****       228.0000 384.2500 -116.2500 Du        
   1862 ****       228.0000 384.2500 -116.0000 Du        
   1863 ****       228.0000 384.2500 -115.7500 Du        
   1864 ****       228.0000 384.2500 -115.5000 Du        
   1865 ****       228.0000 384.2500 -115.2500 Du        
   1866 ****       228.0000 384.5000 -117.2500 Du        
   1867 ****       228.0000 384.5000 -117.0000 Du        
   1868 ****       228.0000 384.5000 -116.7500 Du        
   1869 ****       228.0000 384.5000 -116.5000 Du        
   1870 ****       228.0000 384.5000 -116.2500 Du        
   1871 ****       228.0000 384.5000 -116.0000 Du        
   1872 ****       228.0000 384.5000 -115.7500 Du        
   1873 ****       228.0000 384.5000 -115.5000 Du        
   1874 ****       228.0000 384.5000 -115.2500 Du        
   1875 ****       228.0000 384.7500 -117.5000 Du        
   1876 ****       228.0000 384.7500 -117.2500 Du        
   1877 ****       228.0000 384.7500 -117.0000 Du        
   1878 ****       228.0000 384.7500 -116.7500 Du        
   1879 ****       228.0000 384.7500 -116.5000 Du        
   1880 ****       228.0000 384.7500 -116.2500 Du        
   1881 ****       228.0000 384.7500 -116.0000 Du        
   1882 ****       228.0000 384.7500 -115.7500 Du        
   1883 ****       228.0000 384.7500 -115.5000 Du        
   1884 ****       228.0000 384.7500 -115.2500 Du        
   1885 ****       228.0000 385.0000 -117.7500 Du        
   1886 ****       228.0000 385.0000 -117.5000 Du        
   1887 ****       228.0000 385.0000 -117.2500 Du        
   1888 ****       228.0000 385.0000 -117.0000 Du        
   1889 ****       228.0000 385.0000 -116.7500 Du        
   1890 ****       228.0000 385.0000 -116.5000 Du        
   1891 ****       228.0000 385.0000 -116.2500 Du        
   1892 ****       228.0000 385.0000 -116.0000 Du        
   1893 ****       228.0000 385.0000 -115.7500 Du        
   1894 ****       228.0000 385.2500 -118.0000 Du        
   1895 ****       228.0000 385.2500 -117.7500 Du        
   1896 ****       228.0000 385.2500 -117.5000 Du        
   1897 ****       228.0000 385.2500 -117.2500 Du        
   1898 ****       228.0000 385.2500 -117.0000 Du        
   1899 ****       228.0000 385.2500 -116.7500 Du        
   1900 ****       228.0000 385.2500 -116.5000 Du        
   1901 ****       228.0000 385.2500 -116.2500 Du        
   1902 ****       228.0000 385.2500 -116.0000 Du        
   1903 ****       228.0000 385.2500 -110.2500 Du        
   1904 ****       228.0000 385.2500 -110.0000 Du        
   1905 ****       228.0000 385.5000 -118.2500 Du        
   1906 ****       228.0000 385.5000 -118.0000 Du        
   1907 ****       228.0000 385.5000 -117.7500 Du        
   1908 ****       228.0000 385.5000 -117.5000 Du        
   1909 ****       228.0000 385.5000 -117.2500 Du        
   1910 ****       228.0000 385.5000 -117.0000 Du        
   1911 ****       228.0000 385.5000 -116.7500 Du        
   1912 ****       228.0000 385.5000 -116.5000 Du        
   1913 ****       228.0000 385.5000 -116.2500 Du        
   1914 ****       228.0000 385.5000 -116.0000 Du        
   1915 ****       228.0000 385.5000 -110.2500 Du        
   1916 ****       228.0000 385.5000 -110.0000 Du        
   1917 ****       228.0000 385.7500 -118.5000 Du        
   1918 ****       228.0000 385.7500 -118.2500 Du        
   1919 ****       228.0000 385.7500 -118.0000 Du        
   1920 ****       228.0000 385.7500 -117.7500 Du        
   1921 ****       228.0000 385.7500 -117.5000 Du        
   1922 ****       228.0000 385.7500 -117.2500 Du        
   1923 ****       228.0000 385.7500 -117.0000 Du        
   1924 ****       228.0000 385.7500 -116.7500 Du        
   1925 ****       228.0000 385.7500 -116.5000 Du        
   1926 ****       228.0000 385.7500 -116.2500 Du        
   1927 ****       228.0000 385.7500 -110.2500 Du        
   1928 ****       228.0000 385.7500 -110.0000 Du        
   1929 ****       228.0000 386.0000 -118.7500 Du        
   1930 ****       228.0000 386.0000 -118.5000 Du        
   1931 ****       228.0000 386.0000 -118.2500 Du        
   1932 ****       228.0000 386.0000 -118.0000 Du        
   1933 ****       228.0000 386.0000 -117.7500 Du        
   1934 ****       228.0000 386.0000 -117.5000 Du        
   1935 ****       228.0000 386.0000 -117.2500 Du        
   1936 ****       228.0000 386.0000 -117.0000 Du        
   1937 ****       228.0000 386.0000 -116.7500 Du        
   1938 ****       228.0000 386.0000 -116.5000 Du        
   1939 ****       228.0000 386.0000 -116.2500 Du        
   1940 ****       228.0000 386.0000 -110.2500 Du        
   1941 ****       228.0000 386.0000 -110.0000 Du        
   1942 ****       228.0000 386.2500 -118.7500 Du        
   1943 ****       228.0000 386.2500 -118.5000 Du        
   1944 ****       228.0000 386.2500 -118.2500 Du        
   1945 ****       228.0000 386.2500 -118.0000 Du        
   1946 ****       228.0000 386.2500 -117.7500 Du        
   1947 ****       228.0000 386.2500 -117.5000 Du        
   1948 ****       228.0000 386.2500 -117.2500 Du        
   1949 ****       228.0000 386.2500 -117.0000 Du        
   1950 ****       228.0000 386.2500 -116.7500 Du        
   1951 ****       228.0000 386.2500 -116.5000 Du        
   1952 ****       228.0000 386.2500 -110.2500 Du        
   1953 ****       228.0000 386.2500 -110.0000 Du        
   1954 ****       228.0000 386.5000 -118.7500 Du        
   1955 ****       228.0000 386.5000 -118.5000 Du        
   1956 ****       228.0000 386.5000 -118.2500 Du        
   1957 ****       228.0000 386.5000 -118.0000 Du        
   1958 ****       228.0000 386.5000 -117.7500 Du        
   1959 ****       228.0000 386.5000 -117.5000 Du        
   1960 ****       228.0000 386.5000 -117.2500 Du        
   1961 ****       228.0000 386.5000 -117.0000 Du        
   1962 ****       228.0000 386.5000 -116.7500 Du        
   1963 ****       228.0000 386.5000 -110.0000 Du        
   1964 ****       228.0000 386.7500 -118.7500 Du        
   1965 ****       228.0000 386.7500 -118.5000 Du        
   1966 ****       228.0000 386.7500 -118.2500 Du        
   1967 ****       228.0000 386.7500 -118.0000 Du        
   1968 ****       228.0000 386.7500 -117.7500 Du        
   1969 ****       228.0000 386.7500 -117.5000 Du        
   1970 ****       228.0000 386.7500 -117.2500 Du        
   1971 ****       228.0000 386.7500 -117.0000 Du        
   1972 ****       228.0000 386.7500 -116.7500 Du        
   1973 ****       228.0000 387.0000 -118.7500 Du        
   1974 ****       228.0000 387.0000 -118.5000 Du        
   1975 ****       228.0000 387.0000 -118.2500 Du        
   1976 ****       228.0000 387.0000 -118.0000 Du        
   1977 ****       228.0000 387.0000 -117.7500 Du        
   1978 ****       228.0000 387.0000 -117.5000 Du        
   1979 ****       228.0000 387.0000 -117.2500 Du        
   1980 ****       228.0000 387.0000 -117.0000 Du        
   1981 ****       228.0000 387.0000 -116.7500 Du        
   1982 ****       228.0000 387.2500 -118.5000 Du        
   1983 ****       228.0000 387.2500 -118.2500 Du        
   1984 ****       228.0000 387.2500 -118.0000 Du        
   1985 ****       228.0000 387.2500 -117.7500 Du        
   1986 ****       228.0000 387.2500 -117.5000 Du        
   1987 ****       228.0000 387.2500 -117.2500 Du        
   1988 ****       228.0000 387.2500 -117.0000 Du        
   1989 ****       228.0000 387.2500 -116.7500 Du        
   1990 ****       228.0000 387.5000 -118.7500 Du        
   1991 ****       228.0000 387.5000 -118.5000 Du        
   1992 ****       228.0000 387.5000 -118.2500 Du        
   1993 ****       228.0000 387.5000 -118.0000 Du        
   1994 ****       228.0000 387.5000 -117.7500 Du        
   1995 ****       228.0000 387.5000 -117.5000 Du        
   1996 ****       228.0000 387.5000 -117.2500 Du        
   1997 ****       228.0000 387.5000 -117.0000 Du        
   1998 ****       228.0000 387.5000 -116.7500 Du        
   1999 ****       228.0000 387.7500 -118.7500 Du        
   2000 ****       228.0000 387.7500 -118.5000 Du        
   2001 ****       228.0000 387.7500 -118.2500 Du        
   2002 ****       228.0000 387.7500 -118.0000 Du        
   2003 ****       228.0000 387.7500 -117.7500 Du        
   2004 ****       228.0000 387.7500 -117.5000 Du        
   2005 ****       228.0000 387.7500 -117.2500 Du        
   2006 ****       228.0000 387.7500 -117.0000 Du        
   2007 ****       228.0000 387.7500 -116.7500 Du        
   2008 ****       228.0000 388.0000 -118.7500 Du        
   2009 ****       228.0000 388.0000 -118.5000 Du        
   2010 ****       228.0000 388.0000 -118.2500 Du        
   2011 ****       228.0000 388.0000 -118.0000 Du        
   2012 ****       228.0000 388.0000 -117.7500 Du        
   2013 ****       228.0000 388.0000 -117.5000 Du        
   2014 ****       228.0000 388.0000 -117.2500 Du        
   2015 ****       228.0000 388.0000 -117.0000 Du        
   2016 ****       228.0000 388.0000 -116.7500 Du        
   2017 ****       228.0000 388.2500 -118.7500 Du        
   2018 ****       228.0000 388.2500 -118.5000 Du        
   2019 ****       228.0000 388.2500 -118.2500 Du        
   2020 ****       228.0000 388.2500 -118.0000 Du        
   2021 ****       228.0000 388.2500 -117.7500 Du        
   2022 ****       228.0000 388.2500 -117.5000 Du        
   2023 ****       228.0000 388.2500 -117.2500 Du        
   2024 ****       228.0000 388.5000 -119.0000 Du        
   2025 ****       228.0000 388.5000 -118.7500 Du        
   2026 ****       228.0000 388.5000 -118.5000 Du        
   2027 ****       228.0000 388.5000 -118.2500 Du        
   2028 ****       228.0000 388.5000 -118.0000 Du        
   2029 ****       228.0000 388.7500 -119.0000 Du        
   2030 ****       228.0000 388.7500 -118.7500 Du        
   2031 ****       228.0000 388.7500 -118.5000 Du        
   2032 ****       228.0000 388.7500 -118.2500 Du        
   2033 ****       228.0000 389.0000 -119.2500 Du        
   2034 ****       228.0000 389.0000 -119.0000 Du        
   2035 ****       228.0000 389.0000 -118.7500 Du        
   2036 ****       228.0000 389.2500 -119.2500 Du        
   2037 ****       228.0000 389.2500 -119.0000 Du        
   2038 ****       228.0000 389.5000 -111.5000 Du        
   2039 ****       228.0000 389.5000 -111.2500 Du        
   2040 ****       228.0000 389.7500 -112.7500 Du        
   2041 ****       228.0000 389.7500 -112.5000 Du        
   2042 ****       228.0000 389.7500 -112.2500 Du        
   2043 ****       228.0000 389.7500 -112.0000 Du        
   2044 ****       228.0000 389.7500 -111.7500 Du        
   2045 ****       228.0000 389.7500 -111.5000 Du        
   2046 ****       228.0000 389.7500 -111.2500 Du        
   2047 ****       228.0000 389.7500 -111.0000 Du        
   2048 ****       228.0000 390.0000 -113.0000 Du        
   2049 ****       228.0000 390.0000 -112.7500 Du        
   2050 ****       228.0000 390.0000 -112.5000 Du        
   2051 ****       228.0000 390.0000 -112.2500 Du        
   2052 ****       228.0000 390.0000 -112.0000 Du        
   2053 ****       228.0000 390.0000 -111.7500 Du        
   2054 ****       228.0000 390.0000 -111.5000 Du        
   2055 ****       228.0000 390.0000 -111.2500 Du        
   2056 ****       228.0000 390.0000 -111.0000 Du        
   2057 ****       228.0000 390.2500 -113.0000 Du        
   2058 ****       228.0000 390.2500 -112.7500 Du        
   2059 ****       228.0000 390.2500 -112.5000 Du        
   2060 ****       228.0000 390.2500 -112.2500 Du        
   2061 ****       228.0000 390.2500 -112.0000 Du        
   2062 ****       228.0000 390.2500 -111.7500 Du        
   2063 ****       228.0000 390.2500 -111.5000 Du        
   2064 ****       228.0000 390.2500 -111.2500 Du        
   2065 ****       228.0000 390.5000 -113.0000 Du        
   2066 ****       228.0000 390.5000 -112.7500 Du        
   2067 ****       228.0000 390.5000 -112.5000 Du        
   2068 ****       228.0000 390.5000 -112.2500 Du        
   2069 ****       228.0000 390.5000 -112.0000 Du        
   2070 ****       228.0000 390.5000 -111.7500 Du        
   2071 ****       228.0000 390.5000 -111.5000 Du        
   2072 ****       228.0000 390.5000 -111.2500 Du        
   2073 ****       228.0000 390.7500 -112.7500 Du        
   2074 ****       228.0000 390.7500 -112.5000 Du        
   2075 ****       228.0000 390.7500 -112.2500 Du        
   2076 ****       228.0000 390.7500 -112.0000 Du        
   2077 ****       228.0000 390.7500 -111.7500 Du        
   2078 ****       228.0000 390.7500 -111.5000 Du        
   2079 ****       228.0000 391.0000 -112.7500 Du        
   2080 ****       228.0000 391.0000 -112.5000 Du        
   2081 ****       228.0000 391.0000 -112.2500 Du        
   2082 ****       228.0000 391.0000 -112.0000 Du        
   2083 ****       228.0000 391.0000 -111.7500 Du        
   2084 ****       228.0000 391.0000 -111.5000 Du        
   2085 ****       228.0000 391.2500 -112.7500 Du        
   2086 ****       228.0000 391.2500 -112.5000 Du        
   2087 ****       228.0000 391.2500 -112.2500 Du        
   2088 ****       228.0000 391.2500 -112.0000 Du        
   2089 ****       228.0000 391.2500 -111.7500 Du        
   2090 ****       228.0000 391.5000 -112.7500 Du        
   2091 ****       228.0000 391.5000 -112.5000 Du        
   2092 ****       228.0000 391.5000 -112.2500 Du        
   2093 ****       228.0000 391.5000 -112.0000 Du        
   2094 ****       228.0000 391.5000 -111.7500 Du        
   2095 ****       228.0000 391.7500 -112.5000 Du        
   2096 ****       228.0000 391.7500 -112.2500 Du        
   2097 ****       228.0000 391.7500 -112.0000 Du        
   2098 ****       228.2500 384.2500 -116.7500 Du        
   2099 ****       228.2500 384.2500 -116.5000 Du        
   2100 ****       228.2500 384.2500 -116.2500 Du        
   2101 ****       228.2500 384.2500 -116.0000 Du        
   2102 ****       228.2500 384.2500 -115.7500 Du        
   2103 ****       228.2500 384.5000 -117.2500 Du        
   2104 ****       228.2500 384.5000 -117.0000 Du        
   2105 ****       228.2500 384.5000 -116.7500 Du        
   2106 ****       228.2500 384.5000 -116.5000 Du        
   2107 ****       228.2500 384.5000 -116.2500 Du        
   2108 ****       228.2500 384.5000 -116.0000 Du        
   2109 ****       228.2500 384.5000 -115.7500 Du        
   2110 ****       228.2500 384.7500 -117.5000 Du        
   2111 ****       228.2500 384.7500 -117.2500 Du        
   2112 ****       228.2500 384.7500 -117.0000 Du        
   2113 ****       228.2500 384.7500 -116.7500 Du        
   2114 ****       228.2500 384.7500 -116.5000 Du        
   2115 ****       228.2500 384.7500 -116.2500 Du        
   2116 ****       228.2500 384.7500 -116.0000 Du        
   2117 ****       228.2500 385.0000 -117.7500 Du        
   2118 ****       228.2500 385.0000 -117.5000 Du        
   2119 ****       228.2500 385.0000 -117.2500 Du        
   2120 ****       228.2500 385.0000 -117.0000 Du        
   2121 ****       228.2500 385.0000 -116.7500 Du        
   2122 ****       228.2500 385.0000 -116.5000 Du        
   2123 ****       228.2500 385.0000 -116.2500 Du        
   2124 ****       228.2500 385.0000 -116.0000 Du        
   2125 ****       228.2500 385.2500 -118.2500 Du        
   2126 ****       228.2500 385.2500 -118.0000 Du        
   2127 ****       228.2500 385.2500 -117.7500 Du        
   2128 ****       228.2500 385.2500 -117.5000 Du        
   2129 ****       228.2500 385.2500 -117.2500 Du        
   2130 ****       228.2500 385.2500 -117.0000 Du        
   2131 ****       228.2500 385.2500 -116.7500 Du        
   2132 ****       228.2500 385.2500 -116.5000 Du        
   2133 ****       228.2500 385.2500 -116.2500 Du        
   2134 ****       228.2500 385.5000 -118.2500 Du        
   2135 ****       228.2500 385.5000 -118.0000 Du        
   2136 ****       228.2500 385.5000 -117.7500 Du        
   2137 ****       228.2500 385.5000 -117.5000 Du        
   2138 ****       228.2500 385.5000 -117.2500 Du        
   2139 ****       228.2500 385.5000 -117.0000 Du        
   2140 ****       228.2500 385.5000 -116.7500 Du        
   2141 ****       228.2500 385.5000 -116.5000 Du        
   2142 ****       228.2500 385.7500 -118.7500 Du        
   2143 ****       228.2500 385.7500 -118.5000 Du        
   2144 ****       228.2500 385.7500 -118.2500 Du        
   2145 ****       228.2500 385.7500 -118.0000 Du        
   2146 ****       228.2500 385.7500 -117.7500 Du        
   2147 ****       228.2500 385.7500 -117.5000 Du        
   2148 ****       228.2500 385.7500 -117.2500 Du        
   2149 ****       228.2500 385.7500 -117.0000 Du        
   2150 ****       228.2500 385.7500 -116.7500 Du        
   2151 ****       228.2500 385.7500 -116.5000 Du        
   2152 ****       228.2500 386.0000 -118.7500 Du        
   2153 ****       228.2500 386.0000 -118.5000 Du        
   2154 ****       228.2500 386.0000 -118.2500 Du        
   2155 ****       228.2500 386.0000 -118.0000 Du        
   2156 ****       228.2500 386.0000 -117.7500 Du        
   2157 ****       228.2500 386.0000 -117.5000 Du        
   2158 ****       228.2500 386.0000 -117.2500 Du        
   2159 ****       228.2500 386.0000 -117.0000 Du        
   2160 ****       228.2500 386.0000 -116.7500 Du        
   2161 ****       228.2500 386.2500 -119.0000 Du        
   2162 ****       228.2500 386.2500 -118.7500 Du        
   2163 ****       228.2500 386.2500 -118.5000 Du        
   2164 ****       228.2500 386.2500 -118.2500 Du        
   2165 ****       228.2500 386.2500 -118.0000 Du        
   2166 ****       228.2500 386.2500 -117.7500 Du        
   2167 ****       228.2500 386.2500 -117.5000 Du        
   2168 ****       228.2500 386.2500 -117.2500 Du        
   2169 ****       228.2500 386.2500 -117.0000 Du        
   2170 ****       228.2500 386.2500 -116.7500 Du        
   2171 ****       228.2500 386.2500 -110.0000 Du        
   2172 ****       228.2500 386.5000 -118.7500 Du        
   2173 ****       228.2500 386.5000 -118.5000 Du        
   2174 ****       228.2500 386.5000 -118.2500 Du        
   2175 ****       228.2500 386.5000 -118.0000 Du        
   2176 ****       228.2500 386.5000 -117.7500 Du        
   2177 ****       228.2500 386.5000 -117.5000 Du        
   2178 ****       228.2500 386.5000 -117.2500 Du        
   2179 ****       228.2500 386.5000 -117.0000 Du        
   2180 ****       228.2500 386.7500 -119.0000 Du        
   2181 ****       228.2500 386.7500 -118.7500 Du        
   2182 ****       228.2500 386.7500 -118.5000 Du        
   2183 ****       228.2500 386.7500 -118.2500 Du        
   2184 ****       228.2500 386.7500 -118.0000 Du        
   2185 ****       228.2500 386.7500 -117.7500 Du        
   2186 ****       228.2500 386.7500 -117.5000 Du        
   2187 ****       228.2500 386.7500 -117.2500 Du        
   2188 ****       228.2500 386.7500 -117.0000 Du        
   2189 ****       228.2500 387.0000 -118.7500 Du        
   2190 ****       228.2500 387.0000 -118.5000 Du        
   2191 ****       228.2500 387.0000 -118.2500 Du        
   2192 ****       228.2500 387.0000 -118.0000 Du        
   2193 ****       228.2500 387.0000 -117.7500 Du        
   2194 ****       228.2500 387.0000 -117.5000 Du        
   2195 ****       228.2500 387.0000 -117.2500 Du        
   2196 ****       228.2500 387.0000 -117.0000 Du        
   2197 ****       228.2500 387.0000 -116.7500 Du        
   2198 ****       228.2500 387.2500 -118.7500 Du        
   2199 ****       228.2500 387.2500 -118.5000 Du        
   2200 ****       228.2500 387.2500 -118.2500 Du        
   2201 ****       228.2500 387.2500 -118.0000 Du        
   2202 ****       228.2500 387.2500 -117.7500 Du        
   2203 ****       228.2500 387.2500 -117.5000 Du        
   2204 ****       228.2500 387.2500 -117.2500 Du        
   2205 ****       228.2500 387.2500 -117.0000 Du        
   2206 ****       228.2500 387.2500 -116.7500 Du        
   2207 ****       228.2500 387.5000 -118.7500 Du        
   2208 ****       228.2500 387.5000 -118.5000 Du        
   2209 ****       228.2500 387.5000 -118.2500 Du        
   2210 ****       228.2500 387.5000 -118.0000 Du        
   2211 ****       228.2500 387.5000 -117.7500 Du        
   2212 ****       228.2500 387.5000 -117.5000 Du        
   2213 ****       228.2500 387.5000 -117.2500 Du        
   2214 ****       228.2500 387.5000 -117.0000 Du        
   2215 ****       228.2500 387.5000 -116.7500 Du        
   2216 ****       228.2500 387.7500 -119.0000 Du        
   2217 ****       228.2500 387.7500 -118.7500 Du        
   2218 ****       228.2500 387.7500 -118.5000 Du        
   2219 ****       228.2500 387.7500 -118.2500 Du        
   2220 ****       228.2500 387.7500 -118.0000 Du        
   2221 ****       228.2500 387.7500 -117.7500 Du        
   2222 ****       228.2500 387.7500 -117.5000 Du        
   2223 ****       228.2500 387.7500 -117.2500 Du        
   2224 ****       228.2500 387.7500 -117.0000 Du        
   2225 ****       228.2500 387.7500 -116.7500 Du        
   2226 ****       228.2500 388.0000 -119.0000 Du        
   2227 ****       228.2500 388.0000 -118.7500 Du        
   2228 ****       228.2500 388.0000 -118.5000 Du        
   2229 ****       228.2500 388.0000 -118.2500 Du        
   2230 ****       228.2500 388.0000 -118.0000 Du        
   2231 ****       228.2500 388.0000 -117.7500 Du        
   2232 ****       228.2500 388.0000 -117.5000 Du        
   2233 ****       228.2500 388.0000 -117.2500 Du        
   2234 ****       228.2500 388.0000 -117.0000 Du        
   2235 ****       228.2500 388.0000 -116.7500 Du        
   2236 ****       228.2500 388.2500 -119.0000 Du        
   2237 ****       228.2500 388.2500 -118.7500 Du        
   2238 ****       228.2500 388.2500 -118.5000 Du        
   2239 ****       228.2500 388.2500 -118.2500 Du        
   2240 ****       228.2500 388.2500 -118.0000 Du        
   2241 ****       228.2500 388.2500 -117.7500 Du        
   2242 ****       228.2500 388.2500 -117.5000 Du        
   2243 ****       228.2500 388.2500 -117.2500 Du        
   2244 ****       228.2500 388.2500 -117.0000 Du        
   2245 ****       228.2500 388.5000 -119.0000 Du        
   2246 ****       228.2500 388.5000 -118.7500 Du        
   2247 ****       228.2500 388.5000 -118.5000 Du        
   2248 ****       228.2500 388.5000 -118.2500 Du        
   2249 ****       228.2500 388.5000 -118.0000 Du        
   2250 ****       228.2500 388.5000 -117.7500 Du        
   2251 ****       228.2500 388.7500 -119.2500 Du        
   2252 ****       228.2500 388.7500 -119.0000 Du        
   2253 ****       228.2500 388.7500 -118.7500 Du        
   2254 ****       228.2500 388.7500 -118.5000 Du        
   2255 ****       228.2500 388.7500 -118.2500 Du        
   2256 ****       228.2500 389.0000 -119.2500 Du        
   2257 ****       228.2500 389.0000 -119.0000 Du        
   2258 ****       228.2500 389.0000 -118.7500 Du        
   2259 ****       228.2500 389.0000 -118.5000 Du        
   2260 ****       228.2500 389.2500 -119.0000 Du        
   2261 ****       228.2500 389.2500 -118.7500 Du        
   2262 ****       228.2500 389.5000 -111.5000 Du        
   2263 ****       228.2500 389.5000 -111.2500 Du        
   2264 ****       228.2500 389.5000 -111.0000 Du        
   2265 ****       228.2500 389.7500 -112.7500 Du        
   2266 ****       228.2500 389.7500 -112.5000 Du        
   2267 ****       228.2500 389.7500 -112.2500 Du        
   2268 ****       228.2500 389.7500 -112.0000 Du        
   2269 ****       228.2500 389.7500 -111.7500 Du        
   2270 ****       228.2500 389.7500 -111.5000 Du        
   2271 ****       228.2500 389.7500 -111.2500 Du        
   2272 ****       228.2500 389.7500 -111.0000 Du        
   2273 ****       228.2500 389.7500 -110.7500 Du        
   2274 ****       228.2500 390.0000 -113.0000 Du        
   2275 ****       228.2500 390.0000 -112.7500 Du        
   2276 ****       228.2500 390.0000 -112.5000 Du        
   2277 ****       228.2500 390.0000 -112.2500 Du        
   2278 ****       228.2500 390.0000 -112.0000 Du        
   2279 ****       228.2500 390.0000 -111.7500 Du        
   2280 ****       228.2500 390.0000 -111.5000 Du        
   2281 ****       228.2500 390.0000 -111.2500 Du        
   2282 ****       228.2500 390.0000 -111.0000 Du        
   2283 ****       228.2500 390.0000 -110.7500 Du        
   2284 ****       228.2500 390.2500 -113.0000 Du        
   2285 ****       228.2500 390.2500 -112.7500 Du        
   2286 ****       228.2500 390.2500 -112.5000 Du        
   2287 ****       228.2500 390.2500 -112.2500 Du        
   2288 ****       228.2500 390.2500 -112.0000 Du        
   2289 ****       228.2500 390.2500 -111.7500 Du        
   2290 ****       228.2500 390.2500 -111.5000 Du        
   2291 ****       228.2500 390.2500 -111.2500 Du        
   2292 ****       228.2500 390.2500 -111.0000 Du        
   2293 ****       228.2500 390.5000 -113.0000 Du        
   2294 ****       228.2500 390.5000 -112.7500 Du        
   2295 ****       228.2500 390.5000 -112.5000 Du        
   2296 ****       228.2500 390.5000 -112.2500 Du        
   2297 ****       228.2500 390.5000 -112.0000 Du        
   2298 ****       228.2500 390.5000 -111.7500 Du        
   2299 ****       228.2500 390.5000 -111.5000 Du        
   2300 ****       228.2500 390.5000 -111.2500 Du        
   2301 ****       228.2500 390.7500 -113.0000 Du        
   2302 ****       228.2500 390.7500 -112.7500 Du        
   2303 ****       228.2500 390.7500 -112.5000 Du        
   2304 ****       228.2500 390.7500 -112.2500 Du        
   2305 ****       228.2500 390.7500 -112.0000 Du        
   2306 ****       228.2500 390.7500 -111.7500 Du        
   2307 ****       228.2500 390.7500 -111.5000 Du        
   2308 ****       228.2500 390.7500 -111.2500 Du        
   2309 ****       228.2500 391.0000 -112.7500 Du        
   2310 ****       228.2500 391.0000 -112.5000 Du        
   2311 ****       228.2500 391.0000 -112.2500 Du        
   2312 ****       228.2500 391.0000 -112.0000 Du        
   2313 ****       228.2500 391.0000 -111.7500 Du        
   2314 ****       228.2500 391.0000 -111.5000 Du        
   2315 ****       228.2500 391.0000 -111.2500 Du        
   2316 ****       228.2500 391.2500 -112.7500 Du        
   2317 ****       228.2500 391.2500 -112.5000 Du        
   2318 ****       228.2500 391.2500 -112.2500 Du        
   2319 ****       228.2500 391.2500 -112.0000 Du        
   2320 ****       228.2500 391.2500 -111.7500 Du        
   2321 ****       228.2500 391.2500 -111.5000 Du        
   2322 ****       228.2500 391.5000 -112.5000 Du        
   2323 ****       228.2500 391.5000 -112.2500 Du        
   2324 ****       228.2500 391.5000 -112.0000 Du        
   2325 ****       228.2500 391.5000 -111.7500 Du        
   2326 ****       228.2500 391.7500 -112.5000 Du        
   2327 ****       228.2500 391.7500 -112.2500 Du        
   2328 ****       228.2500 391.7500 -112.0000 Du        
   2329 ****       228.2500 391.7500 -111.7500 Du        
   2330 ****       228.5000 384.2500 -117.0000 Du        
   2331 ****       228.5000 384.2500 -116.7500 Du        
   2332 ****       228.5000 384.2500 -116.5000 Du        
   2333 ****       228.5000 384.2500 -116.2500 Du        
   2334 ****       228.5000 384.2500 -116.0000 Du        
   2335 ****       228.5000 384.5000 -117.2500 Du        
   2336 ****       228.5000 384.5000 -117.0000 Du        
   2337 ****       228.5000 384.5000 -116.7500 Du        
   2338 ****       228.5000 384.5000 -116.5000 Du        
   2339 ****       228.5000 384.5000 -116.2500 Du        
   2340 ****       228.5000 384.7500 -117.7500 Du        
   2341 ****       228.5000 384.7500 -117.5000 Du        
   2342 ****       228.5000 384.7500 -117.2500 Du        
   2343 ****       228.5000 384.7500 -117.0000 Du        
   2344 ****       228.5000 384.7500 -116.7500 Du        
   2345 ****       228.5000 384.7500 -116.5000 Du        
   2346 ****       228.5000 385.0000 -118.0000 Du        
   2347 ****       228.5000 385.0000 -117.7500 Du        
   2348 ****       228.5000 385.0000 -117.5000 Du        
   2349 ****       228.5000 385.0000 -117.2500 Du        
   2350 ****       228.5000 385.0000 -117.0000 Du        
   2351 ****       228.5000 385.0000 -116.7500 Du        
   2352 ****       228.5000 385.0000 -116.5000 Du        
   2353 ****       228.5000 385.2500 -118.2500 Du        
   2354 ****       228.5000 385.2500 -118.0000 Du        
   2355 ****       228.5000 385.2500 -117.7500 Du        
   2356 ****       228.5000 385.2500 -117.5000 Du        
   2357 ****       228.5000 385.2500 -117.2500 Du        
   2358 ****       228.5000 385.2500 -117.0000 Du        
   2359 ****       228.5000 385.2500 -116.7500 Du        
   2360 ****       228.5000 385.5000 -118.5000 Du        
   2361 ****       228.5000 385.5000 -118.2500 Du        
   2362 ****       228.5000 385.5000 -118.0000 Du        
   2363 ****       228.5000 385.5000 -117.7500 Du        
   2364 ****       228.5000 385.5000 -117.5000 Du        
   2365 ****       228.5000 385.5000 -117.2500 Du        
   2366 ****       228.5000 385.5000 -117.0000 Du        
   2367 ****       228.5000 385.5000 -116.7500 Du        
   2368 ****       228.5000 385.7500 -118.7500 Du        
   2369 ****       228.5000 385.7500 -118.5000 Du        
   2370 ****       228.5000 385.7500 -118.2500 Du        
   2371 ****       228.5000 385.7500 -118.0000 Du        
   2372 ****       228.5000 385.7500 -117.7500 Du        
   2373 ****       228.5000 385.7500 -117.5000 Du        
   2374 ****       228.5000 385.7500 -117.2500 Du        
   2375 ****       228.5000 385.7500 -117.0000 Du        
   2376 ****       228.5000 385.7500 -116.7500 Du        
   2377 ****       228.5000 386.0000 -118.7500 Du        
   2378 ****       228.5000 386.0000 -118.5000 Du        
   2379 ****       228.5000 386.0000 -118.2500 Du        
   2380 ****       228.5000 386.0000 -118.0000 Du        
   2381 ****       228.5000 386.0000 -117.7500 Du        
   2382 ****       228.5000 386.0000 -117.5000 Du        
   2383 ****       228.5000 386.0000 -117.2500 Du        
   2384 ****       228.5000 386.0000 -117.0000 Du        
   2385 ****       228.5000 386.0000 -116.7500 Du        
   2386 ****       228.5000 386.2500 -118.7500 Du        
   2387 ****       228.5000 386.2500 -118.5000 Du        
   2388 ****       228.5000 386.2500 -118.2500 Du        
   2389 ****       228.5000 386.2500 -118.0000 Du        
   2390 ****       228.5000 386.2500 -117.7500 Du        
   2391 ****       228.5000 386.2500 -117.5000 Du        
   2392 ****       228.5000 386.2500 -117.2500 Du        
   2393 ****       228.5000 386.2500 -117.0000 Du        
   2394 ****       228.5000 386.5000 -118.7500 Du        
   2395 ****       228.5000 386.5000 -118.5000 Du        
   2396 ****       228.5000 386.5000 -118.2500 Du        
   2397 ****       228.5000 386.5000 -118.0000 Du        
   2398 ****       228.5000 386.5000 -117.7500 Du        
   2399 ****       228.5000 386.5000 -117.5000 Du        
   2400 ****       228.5000 386.5000 -117.2500 Du        
   2401 ****       228.5000 386.5000 -117.0000 Du        
   2402 ****       228.5000 386.7500 -118.7500 Du        
   2403 ****       228.5000 386.7500 -118.5000 Du        
   2404 ****       228.5000 386.7500 -118.2500 Du        
   2405 ****       228.5000 386.7500 -118.0000 Du        
   2406 ****       228.5000 386.7500 -117.7500 Du        
   2407 ****       228.5000 386.7500 -117.5000 Du        
   2408 ****       228.5000 386.7500 -117.2500 Du        
   2409 ****       228.5000 386.7500 -117.0000 Du        
   2410 ****       228.5000 387.0000 -118.7500 Du        
   2411 ****       228.5000 387.0000 -118.5000 Du        
   2412 ****       228.5000 387.0000 -118.2500 Du        
   2413 ****       228.5000 387.0000 -118.0000 Du        
   2414 ****       228.5000 387.0000 -117.7500 Du        
   2415 ****       228.5000 387.0000 -117.5000 Du        
   2416 ****       228.5000 387.0000 -117.2500 Du        
   2417 ****       228.5000 387.0000 -117.0000 Du        
   2418 ****       228.5000 387.2500 -118.7500 Du        
   2419 ****       228.5000 387.2500 -118.5000 Du        
   2420 ****       228.5000 387.2500 -118.2500 Du        
   2421 ****       228.5000 387.2500 -118.0000 Du        
   2422 ****       228.5000 387.2500 -117.7500 Du        
   2423 ****       228.5000 387.2500 -117.5000 Du        
   2424 ****       228.5000 387.2500 -117.2500 Du        
   2425 ****       228.5000 387.2500 -117.0000 Du        
   2426 ****       228.5000 387.5000 -119.0000 Du        
   2427 ****       228.5000 387.5000 -118.7500 Du        
   2428 ****       228.5000 387.5000 -118.5000 Du        
   2429 ****       228.5000 387.5000 -118.2500 Du        
   2430 ****       228.5000 387.5000 -118.0000 Du        
   2431 ****       228.5000 387.5000 -117.7500 Du        
   2432 ****       228.5000 387.5000 -117.5000 Du        
   2433 ****       228.5000 387.5000 -117.2500 Du        
   2434 ****       228.5000 387.5000 -117.0000 Du        
   2435 ****       228.5000 387.7500 -119.0000 Du        
   2436 ****       228.5000 387.7500 -118.7500 Du        
   2437 ****       228.5000 387.7500 -118.5000 Du        
   2438 ****       228.5000 387.7500 -118.2500 Du        
   2439 ****       228.5000 387.7500 -118.0000 Du        
   2440 ****       228.5000 387.7500 -117.7500 Du        
   2441 ****       228.5000 387.7500 -117.5000 Du        
   2442 ****       228.5000 387.7500 -117.2500 Du        
   2443 ****       228.5000 387.7500 -117.0000 Du        
   2444 ****       228.5000 388.0000 -119.0000 Du        
   2445 ****       228.5000 388.0000 -118.7500 Du        
   2446 ****       228.5000 388.0000 -118.5000 Du        
   2447 ****       228.5000 388.0000 -118.2500 Du        
   2448 ****       228.5000 388.0000 -118.0000 Du        
   2449 ****       228.5000 388.0000 -117.7500 Du        
   2450 ****       228.5000 388.0000 -117.5000 Du        
   2451 ****       228.5000 388.0000 -117.2500 Du        
   2452 ****       228.5000 388.0000 -117.0000 Du        
   2453 ****       228.5000 388.2500 -119.0000 Du        
   2454 ****       228.5000 388.2500 -118.7500 Du        
   2455 ****       228.5000 388.2500 -118.5000 Du        
   2456 ****       228.5000 388.2500 -118.2500 Du        
   2457 ****       228.5000 388.2500 -118.0000 Du        
   2458 ****       228.5000 388.2500 -117.7500 Du        
   2459 ****       228.5000 388.2500 -117.5000 Du        
   2460 ****       228.5000 388.2500 -117.2500 Du        
   2461 ****       228.5000 388.5000 -119.0000 Du        
   2462 ****       228.5000 388.5000 -118.7500 Du        
   2463 ****       228.5000 388.5000 -118.5000 Du        
   2464 ****       228.5000 388.5000 -118.2500 Du        
   2465 ****       228.5000 388.5000 -118.0000 Du        
   2466 ****       228.5000 388.5000 -117.7500 Du        
   2467 ****       228.5000 388.7500 -119.0000 Du        
   2468 ****       228.5000 388.7500 -118.7500 Du        
   2469 ****       228.5000 388.7500 -118.5000 Du        
   2470 ****       228.5000 388.7500 -118.2500 Du        
   2471 ****       228.5000 388.7500 -118.0000 Du        
   2472 ****       228.5000 389.0000 -118.7500 Du        
   2473 ****       228.5000 389.0000 -118.5000 Du        
   2474 ****       228.5000 389.5000 -112.2500 Du        
   2475 ****       228.5000 389.5000 -112.0000 Du        
   2476 ****       228.5000 389.5000 -111.7500 Du        
   2477 ****       228.5000 389.5000 -111.5000 Du        
   2478 ****       228.5000 389.5000 -111.2500 Du        
   2479 ****       228.5000 389.5000 -111.0000 Du        
   2480 ****       228.5000 389.5000 -110.7500 Du        
   2481 ****       228.5000 389.5000 -110.5000 Du        
   2482 ****       228.5000 389.7500 -112.7500 Du        
   2483 ****       228.5000 389.7500 -112.5000 Du        
   2484 ****       228.5000 389.7500 -112.2500 Du        
   2485 ****       228.5000 389.7500 -112.0000 Du        
   2486 ****       228.5000 389.7500 -111.7500 Du        
   2487 ****       228.5000 389.7500 -111.5000 Du        
   2488 ****       228.5000 389.7500 -111.2500 Du        
   2489 ****       228.5000 389.7500 -111.0000 Du        
   2490 ****       228.5000 389.7500 -110.7500 Du        
   2491 ****       228.5000 389.7500 -110.5000 Du        
   2492 ****       228.5000 389.7500 -110.2500 Du        
   2493 ****       228.5000 390.0000 -113.0000 Du        
   2494 ****       228.5000 390.0000 -112.7500 Du        
   2495 ****       228.5000 390.0000 -112.5000 Du        
   2496 ****       228.5000 390.0000 -112.2500 Du        
   2497 ****       228.5000 390.0000 -112.0000 Du        
   2498 ****       228.5000 390.0000 -111.7500 Du        
   2499 ****       228.5000 390.0000 -111.5000 Du        
   2500 ****       228.5000 390.0000 -111.2500 Du        
   2501 ****       228.5000 390.0000 -111.0000 Du        
   2502 ****       228.5000 390.0000 -110.7500 Du        
   2503 ****       228.5000 390.2500 -112.7500 Du        
   2504 ****       228.5000 390.2500 -112.5000 Du        
   2505 ****       228.5000 390.2500 -112.2500 Du        
   2506 ****       228.5000 390.2500 -112.0000 Du        
   2507 ****       228.5000 390.2500 -111.7500 Du        
   2508 ****       228.5000 390.2500 -111.5000 Du        
   2509 ****       228.5000 390.2500 -111.2500 Du        
   2510 ****       228.5000 390.2500 -111.0000 Du        
   2511 ****       228.5000 390.2500 -110.7500 Du        
   2512 ****       228.5000 390.5000 -113.0000 Du        
   2513 ****       228.5000 390.5000 -112.7500 Du        
   2514 ****       228.5000 390.5000 -112.5000 Du        
   2515 ****       228.5000 390.5000 -112.2500 Du        
   2516 ****       228.5000 390.5000 -112.0000 Du        
   2517 ****       228.5000 390.5000 -111.7500 Du        
   2518 ****       228.5000 390.5000 -111.5000 Du        
   2519 ****       228.5000 390.5000 -111.2500 Du        
   2520 ****       228.5000 390.5000 -111.0000 Du        
   2521 ****       228.5000 390.7500 -112.7500 Du        
   2522 ****       228.5000 390.7500 -112.5000 Du        
   2523 ****       228.5000 390.7500 -112.2500 Du        
   2524 ****       228.5000 390.7500 -112.0000 Du        
   2525 ****       228.5000 390.7500 -111.7500 Du        
   2526 ****       228.5000 390.7500 -111.5000 Du        
   2527 ****       228.5000 390.7500 -111.2500 Du        
   2528 ****       228.5000 390.7500 -111.0000 Du        
   2529 ****       228.5000 391.0000 -112.7500 Du        
   2530 ****       228.5000 391.0000 -112.5000 Du        
   2531 ****       228.5000 391.0000 -112.2500 Du        
   2532 ****       228.5000 391.0000 -112.0000 Du        
   2533 ****       228.5000 391.0000 -111.7500 Du        
   2534 ****       228.5000 391.0000 -111.5000 Du        
   2535 ****       228.5000 391.0000 -111.2500 Du        
   2536 ****       228.5000 391.2500 -112.2500 Du        
   2537 ****       228.5000 391.2500 -112.0000 Du        
   2538 ****       228.5000 391.2500 -111.7500 Du        
   2539 ****       228.5000 391.2500 -111.5000 Du        
   2540 ****       228.5000 391.5000 -112.2500 Du        
   2541 ****       228.5000 391.5000 -112.0000 Du        
   2542 ****       228.5000 391.5000 -111.7500 Du        
   2543 ****       228.7500 384.2500 -117.0000 Du        
   2544 ****       228.7500 384.2500 -116.7500 Du        
   2545 ****       228.7500 384.5000 -117.2500 Du        
   2546 ****       228.7500 384.5000 -117.0000 Du        
   2547 ****       228.7500 384.5000 -116.7500 Du        
   2548 ****       228.7500 384.7500 -117.7500 Du        
   2549 ****       228.7500 384.7500 -117.5000 Du        
   2550 ****       228.7500 384.7500 -117.2500 Du        
   2551 ****       228.7500 384.7500 -117.0000 Du        
   2552 ****       228.7500 384.7500 -116.7500 Du        
   2553 ****       228.7500 385.0000 -118.0000 Du        
   2554 ****       228.7500 385.0000 -117.7500 Du        
   2555 ****       228.7500 385.0000 -117.5000 Du        
   2556 ****       228.7500 385.0000 -117.2500 Du        
   2557 ****       228.7500 385.0000 -117.0000 Du        
   2558 ****       228.7500 385.0000 -116.7500 Du        
   2559 ****       228.7500 385.2500 -118.2500 Du        
   2560 ****       228.7500 385.2500 -118.0000 Du        
   2561 ****       228.7500 385.2500 -117.7500 Du        
   2562 ****       228.7500 385.2500 -117.5000 Du        
   2563 ****       228.7500 385.2500 -117.2500 Du        
   2564 ****       228.7500 385.2500 -117.0000 Du        
   2565 ****       228.7500 385.5000 -118.5000 Du        
   2566 ****       228.7500 385.5000 -118.2500 Du        
   2567 ****       228.7500 385.5000 -118.0000 Du        
   2568 ****       228.7500 385.5000 -117.7500 Du        
   2569 ****       228.7500 385.5000 -117.5000 Du        
   2570 ****       228.7500 385.5000 -117.2500 Du        
   2571 ****       228.7500 385.5000 -117.0000 Du        
   2572 ****       228.7500 385.7500 -118.7500 Du        
   2573 ****       228.7500 385.7500 -118.5000 Du        
   2574 ****       228.7500 385.7500 -118.2500 Du        
   2575 ****       228.7500 385.7500 -118.0000 Du        
   2576 ****       228.7500 385.7500 -117.7500 Du        
   2577 ****       228.7500 385.7500 -117.5000 Du        
   2578 ****       228.7500 385.7500 -117.2500 Du        
   2579 ****       228.7500 385.7500 -117.0000 Du        
   2580 ****       228.7500 386.0000 -118.7500 Du        
   2581 ****       228.7500 386.0000 -118.5000 Du        
   2582 ****       228.7500 386.0000 -118.2500 Du        
   2583 ****       228.7500 386.0000 -118.0000 Du        
   2584 ****       228.7500 386.0000 -117.7500 Du        
   2585 ****       228.7500 386.0000 -117.5000 Du        
   2586 ****       228.7500 386.0000 -117.2500 Du        
   2587 ****       228.7500 386.0000 -117.0000 Du        
   2588 ****       228.7500 386.2500 -118.7500 Du        
   2589 ****       228.7500 386.2500 -118.5000 Du        
   2590 ****       228.7500 386.2500 -118.2500 Du        
   2591 ****       228.7500 386.2500 -118.0000 Du        
   2592 ****       228.7500 386.2500 -117.7500 Du        
   2593 ****       228.7500 386.2500 -117.5000 Du        
   2594 ****       228.7500 386.2500 -117.2500 Du        
   2595 ****       228.7500 386.5000 -118.7500 Du        
   2596 ****       228.7500 386.5000 -118.5000 Du        
   2597 ****       228.7500 386.5000 -118.2500 Du        
   2598 ****       228.7500 386.5000 -118.0000 Du        
   2599 ****       228.7500 386.5000 -117.7500 Du        
   2600 ****       228.7500 386.5000 -117.5000 Du        
   2601 ****       228.7500 386.5000 -117.2500 Du        
   2602 ****       228.7500 386.7500 -118.7500 Du        
   2603 ****       228.7500 386.7500 -118.5000 Du        
   2604 ****       228.7500 386.7500 -118.2500 Du        
   2605 ****       228.7500 386.7500 -118.0000 Du        
   2606 ****       228.7500 386.7500 -117.7500 Du        
   2607 ****       228.7500 386.7500 -117.5000 Du        
   2608 ****       228.7500 386.7500 -117.2500 Du        
   2609 ****       228.7500 387.0000 -118.7500 Du        
   2610 ****       228.7500 387.0000 -118.5000 Du        
   2611 ****       228.7500 387.0000 -118.2500 Du        
   2612 ****       228.7500 387.0000 -118.0000 Du        
   2613 ****       228.7500 387.0000 -117.7500 Du        
   2614 ****       228.7500 387.0000 -117.5000 Du        
   2615 ****       228.7500 387.0000 -117.2500 Du        
   2616 ****       228.7500 387.2500 -118.7500 Du        
   2617 ****       228.7500 387.2500 -118.5000 Du        
   2618 ****       228.7500 387.2500 -118.2500 Du        
   2619 ****       228.7500 387.2500 -118.0000 Du        
   2620 ****       228.7500 387.2500 -117.7500 Du        
   2621 ****       228.7500 387.2500 -117.5000 Du        
   2622 ****       228.7500 387.2500 -117.2500 Du        
   2623 ****       228.7500 387.2500 -117.0000 Du        
   2624 ****       228.7500 387.5000 -118.7500 Du        
   2625 ****       228.7500 387.5000 -118.5000 Du        
   2626 ****       228.7500 387.5000 -118.2500 Du        
   2627 ****       228.7500 387.5000 -118.0000 Du        
   2628 ****       228.7500 387.5000 -117.7500 Du        
   2629 ****       228.7500 387.5000 -117.5000 Du        
   2630 ****       228.7500 387.5000 -117.2500 Du        
   2631 ****       228.7500 387.5000 -117.0000 Du        
   2632 ****       228.7500 387.7500 -118.7500 Du        
   2633 ****       228.7500 387.7500 -118.5000 Du        
   2634 ****       228.7500 387.7500 -118.2500 Du        
   2635 ****       228.7500 387.7500 -118.0000 Du        
   2636 ****       228.7500 387.7500 -117.7500 Du        
   2637 ****       228.7500 387.7500 -117.5000 Du        
   2638 ****       228.7500 387.7500 -117.2500 Du        
   2639 ****       228.7500 387.7500 -117.0000 Du        
   2640 ****       228.7500 387.7500 -116.7500 Du        
   2641 ****       228.7500 388.0000 -119.0000 Du        
   2642 ****       228.7500 388.0000 -118.7500 Du        
   2643 ****       228.7500 388.0000 -118.5000 Du        
   2644 ****       228.7500 388.0000 -118.2500 Du        
   2645 ****       228.7500 388.0000 -118.0000 Du        
   2646 ****       228.7500 388.0000 -117.7500 Du        
   2647 ****       228.7500 388.0000 -117.5000 Du        
   2648 ****       228.7500 388.0000 -117.2500 Du        
   2649 ****       228.7500 388.0000 -117.0000 Du        
   2650 ****       228.7500 388.2500 -119.0000 Du        
   2651 ****       228.7500 388.2500 -118.7500 Du        
   2652 ****       228.7500 388.2500 -118.5000 Du        
   2653 ****       228.7500 388.2500 -118.2500 Du        
   2654 ****       228.7500 388.2500 -118.0000 Du        
   2655 ****       228.7500 388.2500 -117.7500 Du        
   2656 ****       228.7500 388.2500 -117.5000 Du        
   2657 ****       228.7500 388.2500 -117.2500 Du        
   2658 ****       228.7500 388.2500 -117.0000 Du        
   2659 ****       228.7500 388.5000 -118.7500 Du        
   2660 ****       228.7500 388.5000 -118.5000 Du        
   2661 ****       228.7500 388.5000 -118.2500 Du        
   2662 ****       228.7500 388.5000 -118.0000 Du        
   2663 ****       228.7500 388.5000 -117.7500 Du        
   2664 ****       228.7500 388.5000 -117.5000 Du        
   2665 ****       228.7500 388.5000 -117.2500 Du        
   2666 ****       228.7500 388.5000 -117.0000 Du        
   2667 ****       228.7500 388.7500 -118.7500 Du        
   2668 ****       228.7500 388.7500 -118.5000 Du        
   2669 ****       228.7500 388.7500 -118.2500 Du        
   2670 ****       228.7500 388.7500 -118.0000 Du        
   2671 ****       228.7500 388.7500 -117.7500 Du        
   2672 ****       228.7500 389.0000 -118.7500 Du        
   2673 ****       228.7500 389.0000 -118.5000 Du        
   2674 ****       228.7500 389.0000 -118.2500 Du        
   2675 ****       228.7500 389.0000 -111.7500 Du        
   2676 ****       228.7500 389.0000 -111.0000 Du        
   2677 ****       228.7500 389.2500 -112.0000 Du        
   2678 ****       228.7500 389.2500 -111.7500 Du        
   2679 ****       228.7500 389.2500 -111.2500 Du        
   2680 ****       228.7500 389.2500 -111.0000 Du        
   2681 ****       228.7500 389.2500 -110.7500 Du        
   2682 ****       228.7500 389.5000 -112.5000 Du        
   2683 ****       228.7500 389.5000 -112.2500 Du        
   2684 ****       228.7500 389.5000 -112.0000 Du        
   2685 ****       228.7500 389.5000 -111.7500 Du        
   2686 ****       228.7500 389.5000 -111.5000 Du        
   2687 ****       228.7500 389.5000 -111.2500 Du        
   2688 ****       228.7500 389.5000 -111.0000 Du        
   2689 ****       228.7500 389.5000 -110.7500 Du        
   2690 ****       228.7500 389.5000 -110.5000 Du        
   2691 ****       228.7500 389.7500 -112.7500 Du        
   2692 ****       228.7500 389.7500 -112.5000 Du        
   2693 ****       228.7500 389.7500 -112.2500 Du        
   2694 ****       228.7500 389.7500 -112.0000 Du        
   2695 ****       228.7500 389.7500 -111.7500 Du        
   2696 ****       228.7500 389.7500 -111.5000 Du        
   2697 ****       228.7500 389.7500 -111.2500 Du        
   2698 ****       228.7500 389.7500 -111.0000 Du        
   2699 ****       228.7500 389.7500 -110.7500 Du        
   2700 ****       228.7500 389.7500 -110.5000 Du        
   2701 ****       228.7500 389.7500 -110.2500 Du        
   2702 ****       228.7500 390.0000 -112.7500 Du        
   2703 ****       228.7500 390.0000 -112.5000 Du        
   2704 ****       228.7500 390.0000 -112.2500 Du        
   2705 ****       228.7500 390.0000 -112.0000 Du        
   2706 ****       228.7500 390.0000 -111.7500 Du        
   2707 ****       228.7500 390.0000 -111.5000 Du        
   2708 ****       228.7500 390.0000 -111.2500 Du        
   2709 ****       228.7500 390.0000 -111.0000 Du        
   2710 ****       228.7500 390.0000 -110.7500 Du        
   2711 ****       228.7500 390.0000 -110.5000 Du        
   2712 ****       228.7500 390.0000 -110.2500 Du        
   2713 ****       228.7500 390.0000 -110.0000 Du        
   2714 ****       228.7500 390.2500 -112.7500 Du        
   2715 ****       228.7500 390.2500 -112.5000 Du        
   2716 ****       228.7500 390.2500 -112.2500 Du        
   2717 ****       228.7500 390.2500 -112.0000 Du        
   2718 ****       228.7500 390.2500 -111.7500 Du        
   2719 ****       228.7500 390.2500 -111.5000 Du        
   2720 ****       228.7500 390.2500 -111.2500 Du        
   2721 ****       228.7500 390.2500 -111.0000 Du        
   2722 ****       228.7500 390.2500 -110.7500 Du        
   2723 ****       228.7500 390.2500 -110.5000 Du        
   2724 ****       228.7500 390.2500 -110.2500 Du        
   2725 ****       228.7500 390.2500 -110.0000 Du        
   2726 ****       228.7500 390.5000 -112.7500 Du        
   2727 ****       228.7500 390.5000 -112.5000 Du        
   2728 ****       228.7500 390.5000 -112.2500 Du        
   2729 ****       228.7500 390.5000 -112.0000 Du        
   2730 ****       228.7500 390.5000 -111.7500 Du        
   2731 ****       228.7500 390.5000 -111.5000 Du        
   2732 ****       228.7500 390.5000 -111.2500 Du        
   2733 ****       228.7500 390.5000 -111.0000 Du        
   2734 ****       228.7500 390.5000 -110.7500 Du        
   2735 ****       228.7500 390.5000 -110.5000 Du        
   2736 ****       228.7500 390.7500 -112.2500 Du        
   2737 ****       228.7500 390.7500 -112.0000 Du        
   2738 ****       228.7500 390.7500 -111.7500 Du        
   2739 ****       228.7500 390.7500 -111.5000 Du        
   2740 ****       228.7500 390.7500 -111.2500 Du        
   2741 ****       228.7500 390.7500 -111.0000 Du        
   2742 ****       228.7500 390.7500 -110.7500 Du        
   2743 ****       228.7500 391.0000 -112.2500 Du        
   2744 ****       228.7500 391.0000 -112.0000 Du        
   2745 ****       228.7500 391.0000 -111.7500 Du        
   2746 ****       228.7500 391.0000 -111.5000 Du        
   2747 ****       228.7500 391.0000 -111.2500 Du        
   2748 ****       229.0000 384.5000 -117.2500 Du        
   2749 ****       229.0000 384.7500 -118.0000 Du        
   2750 ****       229.0000 384.7500 -117.7500 Du        
   2751 ****       229.0000 384.7500 -117.5000 Du        
   2752 ****       229.0000 384.7500 -117.2500 Du        
   2753 ****       229.0000 385.0000 -118.2500 Du        
   2754 ****       229.0000 385.0000 -118.0000 Du        
   2755 ****       229.0000 385.0000 -117.7500 Du        
   2756 ****       229.0000 385.0000 -117.5000 Du        
   2757 ****       229.0000 385.0000 -117.2500 Du        
   2758 ****       229.0000 385.2500 -118.2500 Du        
   2759 ****       229.0000 385.2500 -118.0000 Du        
   2760 ****       229.0000 385.2500 -117.7500 Du        
   2761 ****       229.0000 385.2500 -117.5000 Du        
   2762 ****       229.0000 385.2500 -117.2500 Du        
   2763 ****       229.0000 385.5000 -118.5000 Du        
   2764 ****       229.0000 385.5000 -118.2500 Du        
   2765 ****       229.0000 385.5000 -118.0000 Du        
   2766 ****       229.0000 385.5000 -117.7500 Du        
   2767 ****       229.0000 385.5000 -117.5000 Du        
   2768 ****       229.0000 385.5000 -117.2500 Du        
   2769 ****       229.0000 385.7500 -118.5000 Du        
   2770 ****       229.0000 385.7500 -118.2500 Du        
   2771 ****       229.0000 385.7500 -118.0000 Du        
   2772 ****       229.0000 385.7500 -117.7500 Du        
   2773 ****       229.0000 385.7500 -117.5000 Du        
   2774 ****       229.0000 385.7500 -117.2500 Du        
   2775 ****       229.0000 386.0000 -118.5000 Du        
   2776 ****       229.0000 386.0000 -118.2500 Du        
   2777 ****       229.0000 386.0000 -118.0000 Du        
   2778 ****       229.0000 386.0000 -117.7500 Du        
   2779 ****       229.0000 386.0000 -117.5000 Du        
   2780 ****       229.0000 386.0000 -117.2500 Du        
   2781 ****       229.0000 386.2500 -118.5000 Du        
   2782 ****       229.0000 386.2500 -118.2500 Du        
   2783 ****       229.0000 386.2500 -118.0000 Du        
   2784 ****       229.0000 386.2500 -117.7500 Du        
   2785 ****       229.0000 386.2500 -117.5000 Du        
   2786 ****       229.0000 386.2500 -117.2500 Du        
   2787 ****       229.0000 386.5000 -118.5000 Du        
   2788 ****       229.0000 386.5000 -118.2500 Du        
   2789 ****       229.0000 386.5000 -118.0000 Du        
   2790 ****       229.0000 386.5000 -117.7500 Du        
   2791 ****       229.0000 386.5000 -117.5000 Du        
   2792 ****       229.0000 386.7500 -118.5000 Du        
   2793 ****       229.0000 386.7500 -118.2500 Du        
   2794 ****       229.0000 386.7500 -118.0000 Du        
   2795 ****       229.0000 386.7500 -117.7500 Du        
   2796 ****       229.0000 386.7500 -117.5000 Du        
   2797 ****       229.0000 386.7500 -117.2500 Du        
   2798 ****       229.0000 387.0000 -118.5000 Du        
   2799 ****       229.0000 387.0000 -118.2500 Du        
   2800 ****       229.0000 387.0000 -118.0000 Du        
   2801 ****       229.0000 387.0000 -117.7500 Du        
   2802 ****       229.0000 387.0000 -117.5000 Du        
   2803 ****       229.0000 387.0000 -117.2500 Du        
   2804 ****       229.0000 387.2500 -118.5000 Du        
   2805 ****       229.0000 387.2500 -118.2500 Du        
   2806 ****       229.0000 387.2500 -118.0000 Du        
   2807 ****       229.0000 387.2500 -117.7500 Du        
   2808 ****       229.0000 387.2500 -117.5000 Du        
   2809 ****       229.0000 387.2500 -117.2500 Du        
   2810 ****       229.0000 387.5000 -118.5000 Du        
   2811 ****       229.0000 387.5000 -118.2500 Du        
   2812 ****       229.0000 387.5000 -118.0000 Du        
   2813 ****       229.0000 387.5000 -117.7500 Du        
   2814 ****       229.0000 387.5000 -117.5000 Du        
   2815 ****       229.0000 387.5000 -117.2500 Du        
   2816 ****       229.0000 387.7500 -118.5000 Du        
   2817 ****       229.0000 387.7500 -118.2500 Du        
   2818 ****       229.0000 387.7500 -118.0000 Du        
   2819 ****       229.0000 387.7500 -117.7500 Du        
   2820 ****       229.0000 387.7500 -117.5000 Du        
   2821 ****       229.0000 387.7500 -117.2500 Du        
   2822 ****       229.0000 387.7500 -117.0000 Du        
   2823 ****       229.0000 388.0000 -118.7500 Du        
   2824 ****       229.0000 388.0000 -118.5000 Du        
   2825 ****       229.0000 388.0000 -118.2500 Du        
   2826 ****       229.0000 388.0000 -118.0000 Du        
   2827 ****       229.0000 388.0000 -117.7500 Du        
   2828 ****       229.0000 388.0000 -117.5000 Du        
   2829 ****       229.0000 388.0000 -117.2500 Du        
   2830 ****       229.0000 388.0000 -117.0000 Du        
   2831 ****       229.0000 388.0000 -116.7500 Du        
   2832 ****       229.0000 388.2500 -118.7500 Du        
   2833 ****       229.0000 388.2500 -118.5000 Du        
   2834 ****       229.0000 388.2500 -118.2500 Du        
   2835 ****       229.0000 388.2500 -118.0000 Du        
   2836 ****       229.0000 388.2500 -117.7500 Du        
   2837 ****       229.0000 388.2500 -117.5000 Du        
   2838 ****       229.0000 388.2500 -117.2500 Du        
   2839 ****       229.0000 388.2500 -117.0000 Du        
   2840 ****       229.0000 388.2500 -116.7500 Du        
   2841 ****       229.0000 388.2500 -111.2500 Du        
   2842 ****       229.0000 388.2500 -111.0000 Du        
   2843 ****       229.0000 388.5000 -118.5000 Du        
   2844 ****       229.0000 388.5000 -118.2500 Du        
   2845 ****       229.0000 388.5000 -118.0000 Du        
   2846 ****       229.0000 388.5000 -117.7500 Du        
   2847 ****       229.0000 388.5000 -117.5000 Du        
   2848 ****       229.0000 388.5000 -117.2500 Du        
   2849 ****       229.0000 388.5000 -117.0000 Du        
   2850 ****       229.0000 388.5000 -111.2500 Du        
   2851 ****       229.0000 388.7500 -118.5000 Du        
   2852 ****       229.0000 388.7500 -118.2500 Du        
   2853 ****       229.0000 388.7500 -118.0000 Du        
   2854 ****       229.0000 388.7500 -117.7500 Du        
   2855 ****       229.0000 388.7500 -117.5000 Du        
   2856 ****       229.0000 388.7500 -117.2500 Du        
   2857 ****       229.0000 388.7500 -112.0000 Du        
   2858 ****       229.0000 388.7500 -111.7500 Du        
   2859 ****       229.0000 388.7500 -111.2500 Du        
   2860 ****       229.0000 388.7500 -111.0000 Du        
   2861 ****       229.0000 389.0000 -118.2500 Du        
   2862 ****       229.0000 389.0000 -118.0000 Du        
   2863 ****       229.0000 389.0000 -117.7500 Du        
   2864 ****       229.0000 389.0000 -112.0000 Du        
   2865 ****       229.0000 389.0000 -111.7500 Du        
   2866 ****       229.0000 389.0000 -111.2500 Du        
   2867 ****       229.0000 389.0000 -111.0000 Du        
   2868 ****       229.0000 389.2500 -112.2500 Du        
   2869 ****       229.0000 389.2500 -112.0000 Du        
   2870 ****       229.0000 389.2500 -111.7500 Du        
   2871 ****       229.0000 389.2500 -111.5000 Du        
   2872 ****       229.0000 389.2500 -111.2500 Du        
   2873 ****       229.0000 389.2500 -111.0000 Du        
   2874 ****       229.0000 389.2500 -110.7500 Du        
   2875 ****       229.0000 389.5000 -112.5000 Du        
   2876 ****       229.0000 389.5000 -112.2500 Du        
   2877 ****       229.0000 389.5000 -112.0000 Du        
   2878 ****       229.0000 389.5000 -111.7500 Du        
   2879 ****       229.0000 389.5000 -111.5000 Du        
   2880 ****       229.0000 389.5000 -111.2500 Du        
   2881 ****       229.0000 389.5000 -111.0000 Du        
   2882 ****       229.0000 389.5000 -110.7500 Du        
   2883 ****       229.0000 389.5000 -110.5000 Du        
   2884 ****       229.0000 389.7500 -112.5000 Du        
   2885 ****       229.0000 389.7500 -112.2500 Du        
   2886 ****       229.0000 389.7500 -112.0000 Du        
   2887 ****       229.0000 389.7500 -111.7500 Du        
   2888 ****       229.0000 389.7500 -111.5000 Du        
   2889 ****       229.0000 389.7500 -111.2500 Du        
   2890 ****       229.0000 389.7500 -111.0000 Du        
   2891 ****       229.0000 389.7500 -110.7500 Du        
   2892 ****       229.0000 389.7500 -110.5000 Du        
   2893 ****       229.0000 389.7500 -110.2500 Du        
   2894 ****       229.0000 390.0000 -112.5000 Du        
   2895 ****       229.0000 390.0000 -112.2500 Du        
   2896 ****       229.0000 390.0000 -112.0000 Du        
   2897 ****       229.0000 390.0000 -111.7500 Du        
   2898 ****       229.0000 390.0000 -111.5000 Du        
   2899 ****       229.0000 390.0000 -111.2500 Du        
   2900 ****       229.0000 390.0000 -111.0000 Du        
   2901 ****       229.0000 390.0000 -110.7500 Du        
   2902 ****       229.0000 390.0000 -110.5000 Du        
   2903 ****       229.0000 390.0000 -110.2500 Du        
   2904 ****       229.0000 390.0000 -110.0000 Du        
   2905 ****       229.0000 390.2500 -112.2500 Du        
   2906 ****       229.0000 390.2500 -112.0000 Du        
   2907 ****       229.0000 390.2500 -111.7500 Du        
   2908 ****       229.0000 390.2500 -111.5000 Du        
   2909 ****       229.0000 390.2500 -111.2500 Du        
   2910 ****       229.0000 390.2500 -111.0000 Du        
   2911 ****       229.0000 390.2500 -110.7500 Du        
   2912 ****       229.0000 390.2500 -110.5000 Du        
   2913 ****       229.0000 390.2500 -110.2500 Du        
   2914 ****       229.0000 390.2500 -110.0000 Du        
   2915 ****       229.0000 390.5000 -112.2500 Du        
   2916 ****       229.0000 390.5000 -112.0000 Du        
   2917 ****       229.0000 390.5000 -111.7500 Du        
   2918 ****       229.0000 390.5000 -111.5000 Du        
   2919 ****       229.0000 390.5000 -111.2500 Du        
   2920 ****       229.0000 390.5000 -111.0000 Du        
   2921 ****       229.0000 390.5000 -110.7500 Du        
   2922 ****       229.0000 390.5000 -110.5000 Du        
   2923 ****       229.0000 390.5000 -110.2500 Du        
   2924 ****       229.0000 390.7500 -112.0000 Du        
   2925 ****       229.0000 390.7500 -111.7500 Du        
   2926 ****       229.0000 390.7500 -111.5000 Du        
   2927 ****       229.0000 390.7500 -111.2500 Du        
   2928 ****       229.0000 390.7500 -111.0000 Du        
   2929 ****       229.0000 390.7500 -110.7500 Du        
   2930 ****       229.0000 390.7500 -110.5000 Du        
   2931 ****       229.2500 384.7500 -118.0000 Du        
   2932 ****       229.2500 384.7500 -117.7500 Du        
   2933 ****       229.2500 384.7500 -117.5000 Du        
   2934 ****       229.2500 385.0000 -118.2500 Du        
   2935 ****       229.2500 385.0000 -118.0000 Du        
   2936 ****       229.2500 385.0000 -117.7500 Du        
   2937 ****       229.2500 385.0000 -117.5000 Du        
   2938 ****       229.2500 385.2500 -118.2500 Du        
   2939 ****       229.2500 385.2500 -118.0000 Du        
   2940 ****       229.2500 385.2500 -117.7500 Du        
   2941 ****       229.2500 385.2500 -117.5000 Du        
   2942 ****       229.2500 385.5000 -118.5000 Du        
   2943 ****       229.2500 385.5000 -118.2500 Du        
   2944 ****       229.2500 385.5000 -118.0000 Du        
   2945 ****       229.2500 385.5000 -117.7500 Du        
   2946 ****       229.2500 385.5000 -117.5000 Du        
   2947 ****       229.2500 385.7500 -118.5000 Du        
   2948 ****       229.2500 385.7500 -118.2500 Du        
   2949 ****       229.2500 385.7500 -118.0000 Du        
   2950 ****       229.2500 385.7500 -117.7500 Du        
   2951 ****       229.2500 385.7500 -117.5000 Du        
   2952 ****       229.2500 386.0000 -118.2500 Du        
   2953 ****       229.2500 386.0000 -118.0000 Du        
   2954 ****       229.2500 386.0000 -117.7500 Du        
   2955 ****       229.2500 386.0000 -117.5000 Du        
   2956 ****       229.2500 386.2500 -118.2500 Du        
   2957 ****       229.2500 386.2500 -118.0000 Du        
   2958 ****       229.2500 386.2500 -117.7500 Du        
   2959 ****       229.2500 386.2500 -117.5000 Du        
   2960 ****       229.2500 386.5000 -118.2500 Du        
   2961 ****       229.2500 386.5000 -118.0000 Du        
   2962 ****       229.2500 386.5000 -117.7500 Du        
   2963 ****       229.2500 386.5000 -117.5000 Du        
   2964 ****       229.2500 386.7500 -118.2500 Du        
   2965 ****       229.2500 386.7500 -118.0000 Du        
   2966 ****       229.2500 386.7500 -117.7500 Du        
   2967 ****       229.2500 386.7500 -117.5000 Du        
   2968 ****       229.2500 387.0000 -118.2500 Du        
   2969 ****       229.2500 387.0000 -118.0000 Du        
   2970 ****       229.2500 387.0000 -117.7500 Du        
   2971 ****       229.2500 387.0000 -117.5000 Du        
   2972 ****       229.2500 387.2500 -118.2500 Du        
   2973 ****       229.2500 387.2500 -118.0000 Du        
   2974 ****       229.2500 387.2500 -117.7500 Du        
   2975 ****       229.2500 387.2500 -117.5000 Du        
   2976 ****       229.2500 387.5000 -118.2500 Du        
   2977 ****       229.2500 387.5000 -118.0000 Du        
   2978 ****       229.2500 387.5000 -117.7500 Du        
   2979 ****       229.2500 387.5000 -117.5000 Du        
   2980 ****       229.2500 387.5000 -117.2500 Du        
   2981 ****       229.2500 387.7500 -118.2500 Du        
   2982 ****       229.2500 387.7500 -118.0000 Du        
   2983 ****       229.2500 387.7500 -117.7500 Du        
   2984 ****       229.2500 387.7500 -117.5000 Du        
   2985 ****       229.2500 387.7500 -117.2500 Du        
   2986 ****       229.2500 387.7500 -117.0000 Du        
   2987 ****       229.2500 388.0000 -118.2500 Du        
   2988 ****       229.2500 388.0000 -118.0000 Du        
   2989 ****       229.2500 388.0000 -117.7500 Du        
   2990 ****       229.2500 388.0000 -117.5000 Du        
   2991 ****       229.2500 388.0000 -117.2500 Du        
   2992 ****       229.2500 388.0000 -117.0000 Du        
   2993 ****       229.2500 388.0000 -111.2500 Du        
   2994 ****       229.2500 388.0000 -111.0000 Du        
   2995 ****       229.2500 388.2500 -118.2500 Du        
   2996 ****       229.2500 388.2500 -118.0000 Du        
   2997 ****       229.2500 388.2500 -117.7500 Du        
   2998 ****       229.2500 388.2500 -117.5000 Du        
   2999 ****       229.2500 388.2500 -117.2500 Du        
   3000 ****       229.2500 388.2500 -117.0000 Du        
   3001 ****       229.2500 388.2500 -116.7500 Du        
   3002 ****       229.2500 388.2500 -111.5000 Du        
   3003 ****       229.2500 388.2500 -111.2500 Du        
   3004 ****       229.2500 388.2500 -111.0000 Du        
   3005 ****       229.2500 388.5000 -118.2500 Du        
   3006 ****       229.2500 388.5000 -118.0000 Du        
   3007 ****       229.2500 388.5000 -117.7500 Du        
   3008 ****       229.2500 388.5000 -117.5000 Du        
   3009 ****       229.2500 388.5000 -117.2500 Du        
   3010 ****       229.2500 388.5000 -117.0000 Du        
   3011 ****       229.2500 388.5000 -111.7500 Du        
   3012 ****       229.2500 388.5000 -111.5000 Du        
   3013 ****       229.2500 388.5000 -111.2500 Du        
   3014 ****       229.2500 388.5000 -111.0000 Du        
   3015 ****       229.2500 388.7500 -118.2500 Du        
   3016 ****       229.2500 388.7500 -118.0000 Du        
   3017 ****       229.2500 388.7500 -117.7500 Du        
   3018 ****       229.2500 388.7500 -117.5000 Du        
   3019 ****       229.2500 388.7500 -117.2500 Du        
   3020 ****       229.2500 388.7500 -117.0000 Du        
   3021 ****       229.2500 388.7500 -112.2500 Du        
   3022 ****       229.2500 388.7500 -112.0000 Du        
   3023 ****       229.2500 388.7500 -111.7500 Du        
   3024 ****       229.2500 388.7500 -111.5000 Du        
   3025 ****       229.2500 388.7500 -111.2500 Du        
   3026 ****       229.2500 388.7500 -111.0000 Du        
   3027 ****       229.2500 389.0000 -118.2500 Du        
   3028 ****       229.2500 389.0000 -118.0000 Du        
   3029 ****       229.2500 389.0000 -117.7500 Du        
   3030 ****       229.2500 389.0000 -117.5000 Du        
   3031 ****       229.2500 389.0000 -112.5000 Du        
   3032 ****       229.2500 389.0000 -112.2500 Du        
   3033 ****       229.2500 389.0000 -112.0000 Du        
   3034 ****       229.2500 389.0000 -111.7500 Du        
   3035 ****       229.2500 389.0000 -111.5000 Du        
   3036 ****       229.2500 389.0000 -111.2500 Du        
   3037 ****       229.2500 389.0000 -111.0000 Du        
   3038 ****       229.2500 389.0000 -110.7500 Du        
   3039 ****       229.2500 389.2500 -118.0000 Du        
   3040 ****       229.2500 389.2500 -112.2500 Du        
   3041 ****       229.2500 389.2500 -112.0000 Du        
   3042 ****       229.2500 389.2500 -111.7500 Du        
   3043 ****       229.2500 389.2500 -111.5000 Du        
   3044 ****       229.2500 389.2500 -111.2500 Du        
   3045 ****       229.2500 389.2500 -111.0000 Du        
   3046 ****       229.2500 389.2500 -110.7500 Du        
   3047 ****       229.2500 389.5000 -112.5000 Du        
   3048 ****       229.2500 389.5000 -112.2500 Du        
   3049 ****       229.2500 389.5000 -112.0000 Du        
   3050 ****       229.2500 389.5000 -111.7500 Du        
   3051 ****       229.2500 389.5000 -111.5000 Du        
   3052 ****       229.2500 389.5000 -111.2500 Du        
   3053 ****       229.2500 389.5000 -111.0000 Du        
   3054 ****       229.2500 389.5000 -110.7500 Du        
   3055 ****       229.2500 389.5000 -110.5000 Du        
   3056 ****       229.2500 389.7500 -112.2500 Du        
   3057 ****       229.2500 389.7500 -112.0000 Du        
   3058 ****       229.2500 389.7500 -111.7500 Du        
   3059 ****       229.2500 389.7500 -111.5000 Du        
   3060 ****       229.2500 389.7500 -111.2500 Du        
   3061 ****       229.2500 389.7500 -111.0000 Du        
   3062 ****       229.2500 389.7500 -110.7500 Du        
   3063 ****       229.2500 389.7500 -110.5000 Du        
   3064 ****       229.2500 389.7500 -110.2500 Du        
   3065 ****       229.2500 390.0000 -112.2500 Du        
   3066 ****       229.2500 390.0000 -112.0000 Du        
   3067 ****       229.2500 390.0000 -111.7500 Du        
   3068 ****       229.2500 390.0000 -111.5000 Du        
   3069 ****       229.2500 390.0000 -111.2500 Du        
   3070 ****       229.2500 390.0000 -111.0000 Du        
   3071 ****       229.2500 390.0000 -110.7500 Du        
   3072 ****       229.2500 390.0000 -110.5000 Du        
   3073 ****       229.2500 390.0000 -110.2500 Du        
   3074 ****       229.2500 390.0000 -110.0000 Du        
   3075 ****       229.2500 390.2500 -112.0000 Du        
   3076 ****       229.2500 390.2500 -111.7500 Du        
   3077 ****       229.2500 390.2500 -111.5000 Du        
   3078 ****       229.2500 390.2500 -111.2500 Du        
   3079 ****       229.2500 390.2500 -111.0000 Du        
   3080 ****       229.2500 390.2500 -110.7500 Du        
   3081 ****       229.2500 390.2500 -110.5000 Du        
   3082 ****       229.2500 390.2500 -110.2500 Du        
   3083 ****       229.2500 390.2500 -110.0000 Du        
   3084 ****       229.2500 390.5000 -111.5000 Du        
   3085 ****       229.2500 390.5000 -111.2500 Du        
   3086 ****       229.2500 390.5000 -111.0000 Du        
   3087 ****       229.2500 390.5000 -110.7500 Du        
   3088 ****       229.2500 390.5000 -110.5000 Du        
   3089 ****       229.2500 390.5000 -110.2500 Du        
   3090 ****       229.2500 390.5000 -110.0000 Du        
   3091 ****       229.2500 390.7500 -111.2500 Du        
   3092 ****       229.2500 390.7500 -111.0000 Du        
   3093 ****       229.2500 390.7500 -110.7500 Du        
   3094 ****       229.2500 390.7500 -110.5000 Du        
   3095 ****       229.5000 384.7500 -118.0000 Du        
   3096 ****       229.5000 385.0000 -118.2500 Du        
   3097 ****       229.5000 385.0000 -118.0000 Du        
   3098 ****       229.5000 385.0000 -117.7500 Du        
   3099 ****       229.5000 385.2500 -118.2500 Du        
   3100 ****       229.5000 385.2500 -118.0000 Du        
   3101 ****       229.5000 385.2500 -117.7500 Du        
   3102 ****       229.5000 385.5000 -118.2500 Du        
   3103 ****       229.5000 385.5000 -118.0000 Du        
   3104 ****       229.5000 385.5000 -117.7500 Du        
   3105 ****       229.5000 385.7500 -118.2500 Du        
   3106 ****       229.5000 385.7500 -118.0000 Du        
   3107 ****       229.5000 385.7500 -117.7500 Du        
   3108 ****       229.5000 386.0000 -118.0000 Du        
   3109 ****       229.5000 386.0000 -117.7500 Du        
   3110 ****       229.5000 386.2500 -118.0000 Du        
   3111 ****       229.5000 386.2500 -117.7500 Du        
   3112 ****       229.5000 386.5000 -117.7500 Du        
   3113 ****       229.5000 386.7500 -118.0000 Du        
   3114 ****       229.5000 386.7500 -117.7500 Du        
   3115 ****       229.5000 387.0000 -117.7500 Du        
   3116 ****       229.5000 387.2500 -117.7500 Du        
   3117 ****       229.5000 387.2500 -117.5000 Du        
   3118 ****       229.5000 387.5000 -118.0000 Du        
   3119 ****       229.5000 387.5000 -117.7500 Du        
   3120 ****       229.5000 387.5000 -117.5000 Du        
   3121 ****       229.5000 387.7500 -118.0000 Du        
   3122 ****       229.5000 387.7500 -117.7500 Du        
   3123 ****       229.5000 387.7500 -117.5000 Du        
   3124 ****       229.5000 387.7500 -117.2500 Du        
   3125 ****       229.5000 388.0000 -118.0000 Du        
   3126 ****       229.5000 388.0000 -117.7500 Du        
   3127 ****       229.5000 388.0000 -117.5000 Du        
   3128 ****       229.5000 388.0000 -117.2500 Du        
   3129 ****       229.5000 388.0000 -117.0000 Du        
   3130 ****       229.5000 388.0000 -112.0000 Du        
   3131 ****       229.5000 388.0000 -111.5000 Du        
   3132 ****       229.5000 388.0000 -111.2500 Du        
   3133 ****       229.5000 388.0000 -111.0000 Du        
   3134 ****       229.5000 388.2500 -118.0000 Du        
   3135 ****       229.5000 388.2500 -117.7500 Du        
   3136 ****       229.5000 388.2500 -117.5000 Du        
   3137 ****       229.5000 388.2500 -117.2500 Du        
   3138 ****       229.5000 388.2500 -117.0000 Du        
   3139 ****       229.5000 388.2500 -116.7500 Du        
   3140 ****       229.5000 388.2500 -112.0000 Du        
   3141 ****       229.5000 388.2500 -111.7500 Du        
   3142 ****       229.5000 388.2500 -111.5000 Du        
   3143 ****       229.5000 388.2500 -111.2500 Du        
   3144 ****       229.5000 388.2500 -111.0000 Du        
   3145 ****       229.5000 388.5000 -118.0000 Du        
   3146 ****       229.5000 388.5000 -117.7500 Du        
   3147 ****       229.5000 388.5000 -117.5000 Du        
   3148 ****       229.5000 388.5000 -117.2500 Du        
   3149 ****       229.5000 388.5000 -117.0000 Du        
   3150 ****       229.5000 388.5000 -116.7500 Du        
   3151 ****       229.5000 388.5000 -112.5000 Du        
   3152 ****       229.5000 388.5000 -112.2500 Du        
   3153 ****       229.5000 388.5000 -112.0000 Du        
   3154 ****       229.5000 388.5000 -111.7500 Du        
   3155 ****       229.5000 388.5000 -111.5000 Du        
   3156 ****       229.5000 388.5000 -111.2500 Du        
   3157 ****       229.5000 388.5000 -111.0000 Du        
   3158 ****       229.5000 388.5000 -110.7500 Du        
   3159 ****       229.5000 388.7500 -118.0000 Du        
   3160 ****       229.5000 388.7500 -117.7500 Du        
   3161 ****       229.5000 388.7500 -117.5000 Du        
   3162 ****       229.5000 388.7500 -117.2500 Du        
   3163 ****       229.5000 388.7500 -117.0000 Du        
   3164 ****       229.5000 388.7500 -116.7500 Du        
   3165 ****       229.5000 388.7500 -112.5000 Du        
   3166 ****       229.5000 388.7500 -112.2500 Du        
   3167 ****       229.5000 388.7500 -112.0000 Du        
   3168 ****       229.5000 388.7500 -111.7500 Du        
   3169 ****       229.5000 388.7500 -111.5000 Du        
   3170 ****       229.5000 388.7500 -111.2500 Du        
   3171 ****       229.5000 388.7500 -111.0000 Du        
   3172 ****       229.5000 388.7500 -110.7500 Du        
   3173 ****       229.5000 389.0000 -118.0000 Du        
   3174 ****       229.5000 389.0000 -117.7500 Du        
   3175 ****       229.5000 389.0000 -117.5000 Du        
   3176 ****       229.5000 389.0000 -117.2500 Du        
   3177 ****       229.5000 389.0000 -117.0000 Du        
   3178 ****       229.5000 389.0000 -116.7500 Du        
   3179 ****       229.5000 389.0000 -112.5000 Du        
   3180 ****       229.5000 389.0000 -112.2500 Du        
   3181 ****       229.5000 389.0000 -112.0000 Du        
   3182 ****       229.5000 389.0000 -111.7500 Du        
   3183 ****       229.5000 389.0000 -111.5000 Du        
   3184 ****       229.5000 389.0000 -111.2500 Du        
   3185 ****       229.5000 389.0000 -111.0000 Du        
   3186 ****       229.5000 389.0000 -110.7500 Du        
   3187 ****       229.5000 389.2500 -118.0000 Du        
   3188 ****       229.5000 389.2500 -117.7500 Du        
   3189 ****       229.5000 389.2500 -117.5000 Du        
   3190 ****       229.5000 389.2500 -112.5000 Du        
   3191 ****       229.5000 389.2500 -112.2500 Du        
   3192 ****       229.5000 389.2500 -112.0000 Du        
   3193 ****       229.5000 389.2500 -111.7500 Du        
   3194 ****       229.5000 389.2500 -111.5000 Du        
   3195 ****       229.5000 389.2500 -111.2500 Du        
   3196 ****       229.5000 389.2500 -111.0000 Du        
   3197 ****       229.5000 389.2500 -110.7500 Du        
   3198 ****       229.5000 389.5000 -112.5000 Du        
   3199 ****       229.5000 389.5000 -112.2500 Du        
   3200 ****       229.5000 389.5000 -112.0000 Du        
   3201 ****       229.5000 389.5000 -111.7500 Du        
   3202 ****       229.5000 389.5000 -111.5000 Du        
   3203 ****       229.5000 389.5000 -111.2500 Du        
   3204 ****       229.5000 389.5000 -111.0000 Du        
   3205 ****       229.5000 389.5000 -110.7500 Du        
   3206 ****       229.5000 389.5000 -110.5000 Du        
   3207 ****       229.5000 389.7500 -112.2500 Du        
   3208 ****       229.5000 389.7500 -112.0000 Du        
   3209 ****       229.5000 389.7500 -111.7500 Du        
   3210 ****       229.5000 389.7500 -111.5000 Du        
   3211 ****       229.5000 389.7500 -111.2500 Du        
   3212 ****       229.5000 389.7500 -111.0000 Du        
   3213 ****       229.5000 389.7500 -110.7500 Du        
   3214 ****       229.5000 389.7500 -110.5000 Du        
   3215 ****       229.5000 389.7500 -110.2500 Du        
   3216 ****       229.5000 390.0000 -112.0000 Du        
   3217 ****       229.5000 390.0000 -111.7500 Du        
   3218 ****       229.5000 390.0000 -111.5000 Du        
   3219 ****       229.5000 390.0000 -111.2500 Du        
   3220 ****       229.5000 390.0000 -111.0000 Du        
   3221 ****       229.5000 390.0000 -110.7500 Du        
   3222 ****       229.5000 390.0000 -110.5000 Du        
   3223 ****       229.5000 390.0000 -110.2500 Du        
   3224 ****       229.5000 390.0000 -110.0000 Du        
   3225 ****       229.5000 390.2500 -111.7500 Du        
   3226 ****       229.5000 390.2500 -111.5000 Du        
   3227 ****       229.5000 390.2500 -111.2500 Du        
   3228 ****       229.5000 390.2500 -111.0000 Du        
   3229 ****       229.5000 390.2500 -110.7500 Du        
   3230 ****       229.5000 390.2500 -110.5000 Du        
   3231 ****       229.5000 390.2500 -110.2500 Du        
   3232 ****       229.5000 390.2500 -110.0000 Du        
   3233 ****       229.5000 390.5000 -111.5000 Du        
   3234 ****       229.5000 390.5000 -111.2500 Du        
   3235 ****       229.5000 390.5000 -111.0000 Du        
   3236 ****       229.5000 390.5000 -110.7500 Du        
   3237 ****       229.5000 390.5000 -110.5000 Du        
   3238 ****       229.5000 390.5000 -110.2500 Du        
   3239 ****       229.5000 390.5000 -110.0000 Du        
   3240 ****       229.5000 390.7500 -111.0000 Du        
   3241 ****       229.5000 390.7500 -110.7500 Du        
   3242 ****       229.5000 390.7500 -110.5000 Du        
   3243 ****       229.5000 390.7500 -110.2500 Du        
   3244 ****       229.7500 385.2500 -118.0000 Du        
   3245 ****       229.7500 387.7500 -117.7500 Du        
   3246 ****       229.7500 387.7500 -117.5000 Du        
   3247 ****       229.7500 387.7500 -111.2500 Du        
   3248 ****       229.7500 388.0000 -117.7500 Du        
   3249 ****       229.7500 388.0000 -117.5000 Du        
   3250 ****       229.7500 388.0000 -117.2500 Du        
   3251 ****       229.7500 388.0000 -117.0000 Du        
   3252 ****       229.7500 388.0000 -112.5000 Du        
   3253 ****       229.7500 388.0000 -112.2500 Du        
   3254 ****       229.7500 388.0000 -112.0000 Du        
   3255 ****       229.7500 388.0000 -111.7500 Du        
   3256 ****       229.7500 388.0000 -111.5000 Du        
   3257 ****       229.7500 388.0000 -111.2500 Du        
   3258 ****       229.7500 388.0000 -111.0000 Du        
   3259 ****       229.7500 388.2500 -117.7500 Du        
   3260 ****       229.7500 388.2500 -117.5000 Du        
   3261 ****       229.7500 388.2500 -117.2500 Du        
   3262 ****       229.7500 388.2500 -117.0000 Du        
   3263 ****       229.7500 388.2500 -116.7500 Du        
   3264 ****       229.7500 388.2500 -112.7500 Du        
   3265 ****       229.7500 388.2500 -112.5000 Du        
   3266 ****       229.7500 388.2500 -112.2500 Du        
   3267 ****       229.7500 388.2500 -112.0000 Du        
   3268 ****       229.7500 388.2500 -111.7500 Du        
   3269 ****       229.7500 388.2500 -111.5000 Du        
   3270 ****       229.7500 388.2500 -111.2500 Du        
   3271 ****       229.7500 388.2500 -111.0000 Du        
   3272 ****       229.7500 388.2500 -110.7500 Du        
   3273 ****       229.7500 388.5000 -118.0000 Du        
   3274 ****       229.7500 388.5000 -117.7500 Du        
   3275 ****       229.7500 388.5000 -117.5000 Du        
   3276 ****       229.7500 388.5000 -117.2500 Du        
   3277 ****       229.7500 388.5000 -117.0000 Du        
   3278 ****       229.7500 388.5000 -116.7500 Du        
   3279 ****       229.7500 388.5000 -113.0000 Du        
   3280 ****       229.7500 388.5000 -112.7500 Du        
   3281 ****       229.7500 388.5000 -112.5000 Du        
   3282 ****       229.7500 388.5000 -112.2500 Du        
   3283 ****       229.7500 388.5000 -112.0000 Du        
   3284 ****       229.7500 388.5000 -111.7500 Du        
   3285 ****       229.7500 388.5000 -111.5000 Du        
   3286 ****       229.7500 388.5000 -111.2500 Du        
   3287 ****       229.7500 388.5000 -111.0000 Du        
   3288 ****       229.7500 388.5000 -110.7500 Du        
   3289 ****       229.7500 388.7500 -118.0000 Du        
   3290 ****       229.7500 388.7500 -117.7500 Du        
   3291 ****       229.7500 388.7500 -117.5000 Du        
   3292 ****       229.7500 388.7500 -117.2500 Du        
   3293 ****       229.7500 388.7500 -117.0000 Du        
   3294 ****       229.7500 388.7500 -116.7500 Du        
   3295 ****       229.7500 388.7500 -113.0000 Du        
   3296 ****       229.7500 388.7500 -112.7500 Du        
   3297 ****       229.7500 388.7500 -112.5000 Du        
   3298 ****       229.7500 388.7500 -112.2500 Du        
   3299 ****       229.7500 388.7500 -112.0000 Du        
   3300 ****       229.7500 388.7500 -111.7500 Du        
   3301 ****       229.7500 388.7500 -111.5000 Du        
   3302 ****       229.7500 388.7500 -111.2500 Du        
   3303 ****       229.7500 388.7500 -111.0000 Du        
   3304 ****       229.7500 388.7500 -110.7500 Du        
   3305 ****       229.7500 389.0000 -118.0000 Du        
   3306 ****       229.7500 389.0000 -117.7500 Du        
   3307 ****       229.7500 389.0000 -117.5000 Du        
   3308 ****       229.7500 389.0000 -117.2500 Du        
   3309 ****       229.7500 389.0000 -117.0000 Du        
   3310 ****       229.7500 389.0000 -116.7500 Du        
   3311 ****       229.7500 389.0000 -113.0000 Du        
   3312 ****       229.7500 389.0000 -112.7500 Du        
   3313 ****       229.7500 389.0000 -112.5000 Du        
   3314 ****       229.7500 389.0000 -112.2500 Du        
   3315 ****       229.7500 389.0000 -112.0000 Du        
   3316 ****       229.7500 389.0000 -111.7500 Du        
   3317 ****       229.7500 389.0000 -111.5000 Du        
   3318 ****       229.7500 389.0000 -111.2500 Du        
   3319 ****       229.7500 389.0000 -111.0000 Du        
   3320 ****       229.7500 389.0000 -110.7500 Du        
   3321 ****       229.7500 389.2500 -118.0000 Du        
   3322 ****       229.7500 389.2500 -117.7500 Du        
   3323 ****       229.7500 389.2500 -117.5000 Du        
   3324 ****       229.7500 389.2500 -117.2500 Du        
   3325 ****       229.7500 389.2500 -117.0000 Du        
   3326 ****       229.7500 389.2500 -116.7500 Du        
   3327 ****       229.7500 389.2500 -112.7500 Du        
   3328 ****       229.7500 389.2500 -112.5000 Du        
   3329 ****       229.7500 389.2500 -112.2500 Du        
   3330 ****       229.7500 389.2500 -112.0000 Du        
   3331 ****       229.7500 389.2500 -111.7500 Du        
   3332 ****       229.7500 389.2500 -111.5000 Du        
   3333 ****       229.7500 389.2500 -111.2500 Du        
   3334 ****       229.7500 389.2500 -111.0000 Du        
   3335 ****       229.7500 389.2500 -110.7500 Du        
   3336 ****       229.7500 389.2500 -110.5000 Du        
   3337 ****       229.7500 389.5000 -117.7500 Du        
   3338 ****       229.7500 389.5000 -117.5000 Du        
   3339 ****       229.7500 389.5000 -117.2500 Du        
   3340 ****       229.7500 389.5000 -112.5000 Du        
   3341 ****       229.7500 389.5000 -112.2500 Du        
   3342 ****       229.7500 389.5000 -112.0000 Du        
   3343 ****       229.7500 389.5000 -111.7500 Du        
   3344 ****       229.7500 389.5000 -111.5000 Du        
   3345 ****       229.7500 389.5000 -111.2500 Du        
   3346 ****       229.7500 389.5000 -111.0000 Du        
   3347 ****       229.7500 389.5000 -110.7500 Du        
   3348 ****       229.7500 389.5000 -110.5000 Du        
   3349 ****       229.7500 389.7500 -118.0000 Du        
   3350 ****       229.7500 389.7500 -117.7500 Du        
   3351 ****       229.7500 389.7500 -117.5000 Du        
   3352 ****       229.7500 389.7500 -112.2500 Du        
   3353 ****       229.7500 389.7500 -112.0000 Du        
   3354 ****       229.7500 389.7500 -111.7500 Du        
   3355 ****       229.7500 389.7500 -111.5000 Du        
   3356 ****       229.7500 389.7500 -111.2500 Du        
   3357 ****       229.7500 389.7500 -111.0000 Du        
   3358 ****       229.7500 389.7500 -110.7500 Du        
   3359 ****       229.7500 389.7500 -110.5000 Du        
   3360 ****       229.7500 389.7500 -110.2500 Du        
   3361 ****       229.7500 390.0000 -118.0000 Du        
   3362 ****       229.7500 390.0000 -117.7500 Du        
   3363 ****       229.7500 390.0000 -112.0000 Du        
   3364 ****       229.7500 390.0000 -111.7500 Du        
   3365 ****       229.7500 390.0000 -111.5000 Du        
   3366 ****       229.7500 390.0000 -111.2500 Du        
   3367 ****       229.7500 390.0000 -111.0000 Du        
   3368 ****       229.7500 390.0000 -110.7500 Du        
   3369 ****       229.7500 390.0000 -110.5000 Du        
   3370 ****       229.7500 390.0000 -110.2500 Du        
   3371 ****       229.7500 390.0000 -110.0000 Du        
   3372 ****       229.7500 390.2500 -111.5000 Du        
   3373 ****       229.7500 390.2500 -111.2500 Du        
   3374 ****       229.7500 390.2500 -111.0000 Du        
   3375 ****       229.7500 390.2500 -110.7500 Du        
   3376 ****       229.7500 390.2500 -110.5000 Du        
   3377 ****       229.7500 390.2500 -110.2500 Du        
   3378 ****       229.7500 390.2500 -110.0000 Du        
   3379 ****       229.7500 390.5000 -111.2500 Du        
   3380 ****       229.7500 390.5000 -111.0000 Du        
   3381 ****       229.7500 390.5000 -110.7500 Du        
   3382 ****       229.7500 390.5000 -110.5000 Du        
   3383 ****       229.7500 390.5000 -110.2500 Du        
   3384 ****       229.7500 390.5000 -110.0000 Du        
   3385 ****       230.0000 388.0000 -117.2500 Du        
   3386 ****       230.0000 388.0000 -112.7500 Du        
   3387 ****       230.0000 388.0000 -112.5000 Du        
   3388 ****       230.0000 388.0000 -112.2500 Du        
   3389 ****       230.0000 388.0000 -112.0000 Du        
   3390 ****       230.0000 388.0000 -111.7500 Du        
   3391 ****       230.0000 388.0000 -111.5000 Du        
   3392 ****       230.0000 388.0000 -111.2500 Du        
   3393 ****       230.0000 388.0000 -111.0000 Du        
   3394 ****       230.0000 388.0000 -110.7500 Du        
   3395 ****       230.0000 388.2500 -117.5000 Du        
   3396 ****       230.0000 388.2500 -117.2500 Du        
   3397 ****       230.0000 388.2500 -117.0000 Du        
   3398 ****       230.0000 388.2500 -113.0000 Du        
   3399 ****       230.0000 388.2500 -112.7500 Du        
   3400 ****       230.0000 388.2500 -112.5000 Du        
   3401 ****       230.0000 388.2500 -112.2500 Du        
   3402 ****       230.0000 388.2500 -112.0000 Du        
   3403 ****       230.0000 388.2500 -111.7500 Du        
   3404 ****       230.0000 388.2500 -111.5000 Du        
   3405 ****       230.0000 388.2500 -111.2500 Du        
   3406 ****       230.0000 388.2500 -111.0000 Du        
   3407 ****       230.0000 388.2500 -110.7500 Du        
   3408 ****       230.0000 388.5000 -117.5000 Du        
   3409 ****       230.0000 388.5000 -117.2500 Du        
   3410 ****       230.0000 388.5000 -117.0000 Du        
   3411 ****       230.0000 388.5000 -116.7500 Du        
   3412 ****       230.0000 388.5000 -113.0000 Du        
   3413 ****       230.0000 388.5000 -112.7500 Du        
   3414 ****       230.0000 388.5000 -112.5000 Du        
   3415 ****       230.0000 388.5000 -112.2500 Du        
   3416 ****       230.0000 388.5000 -112.0000 Du        
   3417 ****       230.0000 388.5000 -111.7500 Du        
   3418 ****       230.0000 388.5000 -111.5000 Du        
   3419 ****       230.0000 388.5000 -111.2500 Du        
   3420 ****       230.0000 388.5000 -111.0000 Du        
   3421 ****       230.0000 388.5000 -110.7500 Du        
   3422 ****       230.0000 388.7500 -117.7500 Du        
   3423 ****       230.0000 388.7500 -117.5000 Du        
   3424 ****       230.0000 388.7500 -117.2500 Du        
   3425 ****       230.0000 388.7500 -117.0000 Du        
   3426 ****       230.0000 388.7500 -116.7500 Du        
   3427 ****       230.0000 388.7500 -113.2500 Du        
   3428 ****       230.0000 388.7500 -113.0000 Du        
   3429 ****       230.0000 388.7500 -112.7500 Du        
   3430 ****       230.0000 388.7500 -112.5000 Du        
   3431 ****       230.0000 388.7500 -112.2500 Du        
   3432 ****       230.0000 388.7500 -112.0000 Du        
   3433 ****       230.0000 388.7500 -111.7500 Du        
   3434 ****       230.0000 388.7500 -111.5000 Du        
   3435 ****       230.0000 388.7500 -111.2500 Du        
   3436 ****       230.0000 388.7500 -111.0000 Du        
   3437 ****       230.0000 388.7500 -110.7500 Du        
   3438 ****       230.0000 389.0000 -117.7500 Du        
   3439 ****       230.0000 389.0000 -117.5000 Du        
   3440 ****       230.0000 389.0000 -117.2500 Du        
   3441 ****       230.0000 389.0000 -117.0000 Du        
   3442 ****       230.0000 389.0000 -116.7500 Du        
   3443 ****       230.0000 389.0000 -116.5000 Du        
   3444 ****       230.0000 389.0000 -116.2500 Du        
   3445 ****       230.0000 389.0000 -116.0000 Du        
   3446 ****       230.0000 389.0000 -113.2500 Du        
   3447 ****       230.0000 389.0000 -113.0000 Du        
   3448 ****       230.0000 389.0000 -112.7500 Du        
   3449 ****       230.0000 389.0000 -112.5000 Du        
   3450 ****       230.0000 389.0000 -112.2500 Du        
   3451 ****       230.0000 389.0000 -112.0000 Du        
   3452 ****       230.0000 389.0000 -111.7500 Du        
   3453 ****       230.0000 389.0000 -111.5000 Du        
   3454 ****       230.0000 389.0000 -111.2500 Du        
   3455 ****       230.0000 389.0000 -111.0000 Du        
   3456 ****       230.0000 389.0000 -110.7500 Du        
   3457 ****       230.0000 389.0000 -110.5000 Du        
   3458 ****       230.0000 389.2500 -117.7500 Du        
   3459 ****       230.0000 389.2500 -117.5000 Du        
   3460 ****       230.0000 389.2500 -117.2500 Du        
   3461 ****       230.0000 389.2500 -117.0000 Du        
   3462 ****       230.0000 389.2500 -116.7500 Du        
   3463 ****       230.0000 389.2500 -116.5000 Du        
   3464 ****       230.0000 389.2500 -116.2500 Du        
   3465 ****       230.0000 389.2500 -116.0000 Du        
   3466 ****       230.0000 389.2500 -113.0000 Du        
   3467 ****       230.0000 389.2500 -112.7500 Du        
   3468 ****       230.0000 389.2500 -112.5000 Du        
   3469 ****       230.0000 389.2500 -112.2500 Du        
   3470 ****       230.0000 389.2500 -112.0000 Du        
   3471 ****       230.0000 389.2500 -111.7500 Du        
   3472 ****       230.0000 389.2500 -111.5000 Du        
   3473 ****       230.0000 389.2500 -111.2500 Du        
   3474 ****       230.0000 389.2500 -111.0000 Du        
   3475 ****       230.0000 389.2500 -110.7500 Du        
   3476 ****       230.0000 389.2500 -110.5000 Du        
   3477 ****       230.0000 389.5000 -117.7500 Du        
   3478 ****       230.0000 389.5000 -117.5000 Du        
   3479 ****       230.0000 389.5000 -117.2500 Du        
   3480 ****       230.0000 389.5000 -117.0000 Du        
   3481 ****       230.0000 389.5000 -116.7500 Du        
   3482 ****       230.0000 389.5000 -112.5000 Du        
   3483 ****       230.0000 389.5000 -112.2500 Du        
   3484 ****       230.0000 389.5000 -112.0000 Du        
   3485 ****       230.0000 389.5000 -111.7500 Du        
   3486 ****       230.0000 389.5000 -111.5000 Du        
   3487 ****       230.0000 389.5000 -111.2500 Du        
   3488 ****       230.0000 389.5000 -111.0000 Du        
   3489 ****       230.0000 389.5000 -110.7500 Du        
   3490 ****       230.0000 389.5000 -110.5000 Du        
   3491 ****       230.0000 389.7500 -118.0000 Du        
   3492 ****       230.0000 389.7500 -117.7500 Du        
   3493 ****       230.0000 389.7500 -117.5000 Du        
   3494 ****       230.0000 389.7500 -117.2500 Du        
   3495 ****       230.0000 389.7500 -117.0000 Du        
   3496 ****       230.0000 389.7500 -116.7500 Du        
   3497 ****       230.0000 389.7500 -112.2500 Du        
   3498 ****       230.0000 389.7500 -112.0000 Du        
   3499 ****       230.0000 389.7500 -111.7500 Du        
   3500 ****       230.0000 389.7500 -111.5000 Du        
   3501 ****       230.0000 389.7500 -111.2500 Du        
   3502 ****       230.0000 389.7500 -111.0000 Du        
   3503 ****       230.0000 389.7500 -110.7500 Du        
   3504 ****       230.0000 389.7500 -110.5000 Du        
   3505 ****       230.0000 389.7500 -110.2500 Du        
   3506 ****       230.0000 390.0000 -118.0000 Du        
   3507 ****       230.0000 390.0000 -117.7500 Du        
   3508 ****       230.0000 390.0000 -117.5000 Du        
   3509 ****       230.0000 390.0000 -117.2500 Du        
   3510 ****       230.0000 390.0000 -117.0000 Du        
   3511 ****       230.0000 390.0000 -116.7500 Du        
   3512 ****       230.0000 390.0000 -112.0000 Du        
   3513 ****       230.0000 390.0000 -111.7500 Du        
   3514 ****       230.0000 390.0000 -111.5000 Du        
   3515 ****       230.0000 390.0000 -111.2500 Du        
   3516 ****       230.0000 390.0000 -111.0000 Du        
   3517 ****       230.0000 390.0000 -110.7500 Du        
   3518 ****       230.0000 390.0000 -110.5000 Du        
   3519 ****       230.0000 390.0000 -110.2500 Du        
   3520 ****       230.0000 390.0000 -110.0000 Du        
   3521 ****       230.0000 390.2500 -118.0000 Du        
   3522 ****       230.0000 390.2500 -117.7500 Du        
   3523 ****       230.0000 390.2500 -117.5000 Du        
   3524 ****       230.0000 390.2500 -117.2500 Du        
   3525 ****       230.0000 390.2500 -111.2500 Du        
   3526 ****       230.0000 390.2500 -111.0000 Du        
   3527 ****       230.0000 390.2500 -110.7500 Du        
   3528 ****       230.0000 390.2500 -110.5000 Du        
   3529 ****       230.0000 390.2500 -110.2500 Du        
   3530 ****       230.0000 390.2500 -110.0000 Du        
   3531 ****       230.0000 390.5000 -118.0000 Du        
   3532 ****       230.0000 390.5000 -117.7500 Du        
   3533 ****       230.0000 390.5000 -110.7500 Du        
   3534 ****       230.0000 390.5000 -110.5000 Du        
   3535 ****       230.0000 390.5000 -110.2500 Du        
   3536 ****       230.0000 390.7500 -118.0000 Du        
   3537 ****       230.0000 390.7500 -117.7500 Du        
   3538 ****       230.2500 387.7500 -112.2500 Du        
   3539 ****       230.2500 387.7500 -112.0000 Du        
   3540 ****       230.2500 388.0000 -112.7500 Du        
   3541 ****       230.2500 388.0000 -112.5000 Du        
   3542 ****       230.2500 388.0000 -112.2500 Du        
   3543 ****       230.2500 388.0000 -112.0000 Du        
   3544 ****       230.2500 388.0000 -111.7500 Du        
   3545 ****       230.2500 388.0000 -111.5000 Du        
   3546 ****       230.2500 388.0000 -111.2500 Du        
   3547 ****       230.2500 388.0000 -111.0000 Du        
   3548 ****       230.2500 388.0000 -110.7500 Du        
   3549 ****       230.2500 388.2500 -113.0000 Du        
   3550 ****       230.2500 388.2500 -112.7500 Du        
   3551 ****       230.2500 388.2500 -112.5000 Du        
   3552 ****       230.2500 388.2500 -112.2500 Du        
   3553 ****       230.2500 388.2500 -112.0000 Du        
   3554 ****       230.2500 388.2500 -111.7500 Du        
   3555 ****       230.2500 388.2500 -111.5000 Du        
   3556 ****       230.2500 388.2500 -111.2500 Du        
   3557 ****       230.2500 388.2500 -111.0000 Du        
   3558 ****       230.2500 388.2500 -110.7500 Du        
   3559 ****       230.2500 388.5000 -113.2500 Du        
   3560 ****       230.2500 388.5000 -113.0000 Du        
   3561 ****       230.2500 388.5000 -112.7500 Du        
   3562 ****       230.2500 388.5000 -112.5000 Du        
   3563 ****       230.2500 388.5000 -112.2500 Du        
   3564 ****       230.2500 388.5000 -112.0000 Du        
   3565 ****       230.2500 388.5000 -111.7500 Du        
   3566 ****       230.2500 388.5000 -111.5000 Du        
   3567 ****       230.2500 388.5000 -111.2500 Du        
   3568 ****       230.2500 388.5000 -111.0000 Du        
   3569 ****       230.2500 388.5000 -110.7500 Du        
   3570 ****       230.2500 388.7500 -117.2500 Du        
   3571 ****       230.2500 388.7500 -117.0000 Du        
   3572 ****       230.2500 388.7500 -116.7500 Du        
   3573 ****       230.2500 388.7500 -113.5000 Du        
   3574 ****       230.2500 388.7500 -113.2500 Du        
   3575 ****       230.2500 388.7500 -113.0000 Du        
   3576 ****       230.2500 388.7500 -112.7500 Du        
   3577 ****       230.2500 388.7500 -112.5000 Du        
   3578 ****       230.2500 388.7500 -112.2500 Du        
   3579 ****       230.2500 388.7500 -112.0000 Du        
   3580 ****       230.2500 388.7500 -111.7500 Du        
   3581 ****       230.2500 388.7500 -111.5000 Du        
   3582 ****       230.2500 388.7500 -111.2500 Du        
   3583 ****       230.2500 388.7500 -111.0000 Du        
   3584 ****       230.2500 388.7500 -110.7500 Du        
   3585 ****       230.2500 389.0000 -117.5000 Du        
   3586 ****       230.2500 389.0000 -117.2500 Du        
   3587 ****       230.2500 389.0000 -117.0000 Du        
   3588 ****       230.2500 389.0000 -116.7500 Du        
   3589 ****       230.2500 389.0000 -116.5000 Du        
   3590 ****       230.2500 389.0000 -116.2500 Du        
   3591 ****       230.2500 389.0000 -116.0000 Du        
   3592 ****       230.2500 389.0000 -113.5000 Du        
   3593 ****       230.2500 389.0000 -113.2500 Du        
   3594 ****       230.2500 389.0000 -113.0000 Du        
   3595 ****       230.2500 389.0000 -112.7500 Du        
   3596 ****       230.2500 389.0000 -112.5000 Du        
   3597 ****       230.2500 389.0000 -112.2500 Du        
   3598 ****       230.2500 389.0000 -112.0000 Du        
   3599 ****       230.2500 389.0000 -111.7500 Du        
   3600 ****       230.2500 389.0000 -111.5000 Du        
   3601 ****       230.2500 389.0000 -111.2500 Du        
   3602 ****       230.2500 389.0000 -111.0000 Du        
   3603 ****       230.2500 389.0000 -110.7500 Du        
   3604 ****       230.2500 389.0000 -110.5000 Du        
   3605 ****       230.2500 389.2500 -117.7500 Du        
   3606 ****       230.2500 389.2500 -117.5000 Du        
   3607 ****       230.2500 389.2500 -117.2500 Du        
   3608 ****       230.2500 389.2500 -117.0000 Du        
   3609 ****       230.2500 389.2500 -116.7500 Du        
   3610 ****       230.2500 389.2500 -116.5000 Du        
   3611 ****       230.2500 389.2500 -116.2500 Du        
   3612 ****       230.2500 389.2500 -116.0000 Du        
   3613 ****       230.2500 389.2500 -115.5000 Du        
   3614 ****       230.2500 389.2500 -115.2500 Du        
   3615 ****       230.2500 389.2500 -115.0000 Du        
   3616 ****       230.2500 389.2500 -113.0000 Du        
   3617 ****       230.2500 389.2500 -112.7500 Du        
   3618 ****       230.2500 389.2500 -112.5000 Du        
   3619 ****       230.2500 389.2500 -112.2500 Du        
   3620 ****       230.2500 389.2500 -112.0000 Du        
   3621 ****       230.2500 389.2500 -111.7500 Du        
   3622 ****       230.2500 389.2500 -111.5000 Du        
   3623 ****       230.2500 389.2500 -111.2500 Du        
   3624 ****       230.2500 389.2500 -111.0000 Du        
   3625 ****       230.2500 389.2500 -110.7500 Du        
   3626 ****       230.2500 389.2500 -110.5000 Du        
   3627 ****       230.2500 389.5000 -117.7500 Du        
   3628 ****       230.2500 389.5000 -117.5000 Du        
   3629 ****       230.2500 389.5000 -117.2500 Du        
   3630 ****       230.2500 389.5000 -117.0000 Du        
   3631 ****       230.2500 389.5000 -116.7500 Du        
   3632 ****       230.2500 389.5000 -116.5000 Du        
   3633 ****       230.2500 389.5000 -116.2500 Du        
   3634 ****       230.2500 389.5000 -112.5000 Du        
   3635 ****       230.2500 389.5000 -112.2500 Du        
   3636 ****       230.2500 389.5000 -112.0000 Du        
   3637 ****       230.2500 389.5000 -111.7500 Du        
   3638 ****       230.2500 389.5000 -111.5000 Du        
   3639 ****       230.2500 389.5000 -111.2500 Du        
   3640 ****       230.2500 389.5000 -111.0000 Du        
   3641 ****       230.2500 389.5000 -110.7500 Du        
   3642 ****       230.2500 389.5000 -110.5000 Du        
   3643 ****       230.2500 389.7500 -117.7500 Du        
   3644 ****       230.2500 389.7500 -117.5000 Du        
   3645 ****       230.2500 389.7500 -117.2500 Du        
   3646 ****       230.2500 389.7500 -117.0000 Du        
   3647 ****       230.2500 389.7500 -116.7500 Du        
   3648 ****       230.2500 389.7500 -116.5000 Du        
   3649 ****       230.2500 389.7500 -116.2500 Du        
   3650 ****       230.2500 389.7500 -116.0000 Du        
   3651 ****       230.2500 389.7500 -112.0000 Du        
   3652 ****       230.2500 389.7500 -111.7500 Du        
   3653 ****       230.2500 389.7500 -111.5000 Du        
   3654 ****       230.2500 389.7500 -111.2500 Du        
   3655 ****       230.2500 389.7500 -111.0000 Du        
   3656 ****       230.2500 389.7500 -110.7500 Du        
   3657 ****       230.2500 389.7500 -110.5000 Du        
   3658 ****       230.2500 389.7500 -110.2500 Du        
   3659 ****       230.2500 390.0000 -118.0000 Du        
   3660 ****       230.2500 390.0000 -117.7500 Du        
   3661 ****       230.2500 390.0000 -117.5000 Du        
   3662 ****       230.2500 390.0000 -117.2500 Du        
   3663 ****       230.2500 390.0000 -117.0000 Du        
   3664 ****       230.2500 390.0000 -116.7500 Du        
   3665 ****       230.2500 390.0000 -116.5000 Du        
   3666 ****       230.2500 390.0000 -116.2500 Du        
   3667 ****       230.2500 390.0000 -116.0000 Du        
   3668 ****       230.2500 390.0000 -111.7500 Du        
   3669 ****       230.2500 390.0000 -111.5000 Du        
   3670 ****       230.2500 390.0000 -111.2500 Du        
   3671 ****       230.2500 390.0000 -111.0000 Du        
   3672 ****       230.2500 390.0000 -110.7500 Du        
   3673 ****       230.2500 390.0000 -110.5000 Du        
   3674 ****       230.2500 390.0000 -110.2500 Du        
   3675 ****       230.2500 390.0000 -110.0000 Du        
   3676 ****       230.2500 390.2500 -118.0000 Du        
   3677 ****       230.2500 390.2500 -117.7500 Du        
   3678 ****       230.2500 390.2500 -117.5000 Du        
   3679 ****       230.2500 390.2500 -117.2500 Du        
   3680 ****       230.2500 390.2500 -117.0000 Du        
   3681 ****       230.2500 390.2500 -116.7500 Du        
   3682 ****       230.2500 390.2500 -116.5000 Du        
   3683 ****       230.2500 390.2500 -116.2500 Du        
   3684 ****       230.2500 390.2500 -111.2500 Du        
   3685 ****       230.2500 390.2500 -111.0000 Du        
   3686 ****       230.2500 390.2500 -110.7500 Du        
   3687 ****       230.2500 390.2500 -110.5000 Du        
   3688 ****       230.2500 390.2500 -110.2500 Du        
   3689 ****       230.2500 390.5000 -118.0000 Du        
   3690 ****       230.2500 390.5000 -117.7500 Du        
   3691 ****       230.2500 390.5000 -117.5000 Du        
   3692 ****       230.2500 390.5000 -117.2500 Du        
   3693 ****       230.2500 390.5000 -117.0000 Du        
   3694 ****       230.2500 390.5000 -116.7500 Du        
   3695 ****       230.2500 390.5000 -116.5000 Du        
   3696 ****       230.2500 390.7500 -118.0000 Du        
   3697 ****       230.2500 390.7500 -117.7500 Du        
   3698 ****       230.2500 390.7500 -117.5000 Du        
   3699 ****       230.2500 390.7500 -117.2500 Du        
   3700 ****       230.2500 390.7500 -117.0000 Du        
   3701 ****       230.2500 390.7500 -116.7500 Du        
   3702 ****       230.2500 391.0000 -118.0000 Du        
   3703 ****       230.2500 391.0000 -117.7500 Du        
   3704 ****       230.2500 391.0000 -117.5000 Du        
   3705 ****       230.2500 391.0000 -117.2500 Du        
   3706 ****       230.2500 391.0000 -117.0000 Du        
   3707 ****       230.2500 391.2500 -117.7500 Du        
   3708 ****       230.5000 387.7500 -112.5000 Du        
   3709 ****       230.5000 387.7500 -112.2500 Du        
   3710 ****       230.5000 387.7500 -112.0000 Du        
   3711 ****       230.5000 387.7500 -111.7500 Du        
   3712 ****       230.5000 388.0000 -112.7500 Du        
   3713 ****       230.5000 388.0000 -112.5000 Du        
   3714 ****       230.5000 388.0000 -112.2500 Du        
   3715 ****       230.5000 388.0000 -112.0000 Du        
   3716 ****       230.5000 388.0000 -111.7500 Du        
   3717 ****       230.5000 388.0000 -111.5000 Du        
   3718 ****       230.5000 388.0000 -111.2500 Du        
   3719 ****       230.5000 388.0000 -111.0000 Du        
   3720 ****       230.5000 388.2500 -113.0000 Du        
   3721 ****       230.5000 388.2500 -112.7500 Du        
   3722 ****       230.5000 388.2500 -112.5000 Du        
   3723 ****       230.5000 388.2500 -112.2500 Du        
   3724 ****       230.5000 388.2500 -112.0000 Du        
   3725 ****       230.5000 388.2500 -111.7500 Du        
   3726 ****       230.5000 388.2500 -111.5000 Du        
   3727 ****       230.5000 388.2500 -111.2500 Du        
   3728 ****       230.5000 388.2500 -111.0000 Du        
   3729 ****       230.5000 388.2500 -110.7500 Du        
   3730 ****       230.5000 388.5000 -113.5000 Du        
   3731 ****       230.5000 388.5000 -113.2500 Du        
   3732 ****       230.5000 388.5000 -113.0000 Du        
   3733 ****       230.5000 388.5000 -112.7500 Du        
   3734 ****       230.5000 388.5000 -112.5000 Du        
   3735 ****       230.5000 388.5000 -112.2500 Du        
   3736 ****       230.5000 388.5000 -112.0000 Du        
   3737 ****       230.5000 388.5000 -111.7500 Du        
   3738 ****       230.5000 388.5000 -111.5000 Du        
   3739 ****       230.5000 388.5000 -111.2500 Du        
   3740 ****       230.5000 388.5000 -111.0000 Du        
   3741 ****       230.5000 388.5000 -110.7500 Du        
   3742 ****       230.5000 388.7500 -116.7500 Du        
   3743 ****       230.5000 388.7500 -116.5000 Du        
   3744 ****       230.5000 388.7500 -116.2500 Du        
   3745 ****       230.5000 388.7500 -113.7500 Du        
   3746 ****       230.5000 388.7500 -113.5000 Du        
   3747 ****       230.5000 388.7500 -113.2500 Du        
   3748 ****       230.5000 388.7500 -113.0000 Du        
   3749 ****       230.5000 388.7500 -112.7500 Du        
   3750 ****       230.5000 388.7500 -112.5000 Du        
   3751 ****       230.5000 388.7500 -112.2500 Du        
   3752 ****       230.5000 388.7500 -112.0000 Du        
   3753 ****       230.5000 388.7500 -111.7500 Du        
   3754 ****       230.5000 388.7500 -111.5000 Du        
   3755 ****       230.5000 388.7500 -111.2500 Du        
   3756 ****       230.5000 388.7500 -111.0000 Du        
   3757 ****       230.5000 388.7500 -110.7500 Du        
   3758 ****       230.5000 388.7500 -110.5000 Du        
   3759 ****       230.5000 389.0000 -117.0000 Du        
   3760 ****       230.5000 389.0000 -116.7500 Du        
   3761 ****       230.5000 389.0000 -116.5000 Du        
   3762 ****       230.5000 389.0000 -116.2500 Du        
   3763 ****       230.5000 389.0000 -116.0000 Du        
   3764 ****       230.5000 389.0000 -115.7500 Du        
   3765 ****       230.5000 389.0000 -114.0000 Du        
   3766 ****       230.5000 389.0000 -113.7500 Du        
   3767 ****       230.5000 389.0000 -113.5000 Du        
   3768 ****       230.5000 389.0000 -113.2500 Du        
   3769 ****       230.5000 389.0000 -113.0000 Du        
   3770 ****       230.5000 389.0000 -112.7500 Du        
   3771 ****       230.5000 389.0000 -112.5000 Du        
   3772 ****       230.5000 389.0000 -112.2500 Du        
   3773 ****       230.5000 389.0000 -112.0000 Du        
   3774 ****       230.5000 389.0000 -111.7500 Du        
   3775 ****       230.5000 389.0000 -111.5000 Du        
   3776 ****       230.5000 389.0000 -111.2500 Du        
   3777 ****       230.5000 389.0000 -111.0000 Du        
   3778 ****       230.5000 389.0000 -110.7500 Du        
   3779 ****       230.5000 389.0000 -110.5000 Du        
   3780 ****       230.5000 389.2500 -117.2500 Du        
   3781 ****       230.5000 389.2500 -117.0000 Du        
   3782 ****       230.5000 389.2500 -116.7500 Du        
   3783 ****       230.5000 389.2500 -116.5000 Du        
   3784 ****       230.5000 389.2500 -116.2500 Du        
   3785 ****       230.5000 389.2500 -116.0000 Du        
   3786 ****       230.5000 389.2500 -115.7500 Du        
   3787 ****       230.5000 389.2500 -115.5000 Du        
   3788 ****       230.5000 389.2500 -115.2500 Du        
   3789 ****       230.5000 389.2500 -115.0000 Du        
   3790 ****       230.5000 389.2500 -114.7500 Du        
   3791 ****       230.5000 389.2500 -113.0000 Du        
   3792 ****       230.5000 389.2500 -112.7500 Du        
   3793 ****       230.5000 389.2500 -112.5000 Du        
   3794 ****       230.5000 389.2500 -112.2500 Du        
   3795 ****       230.5000 389.2500 -112.0000 Du        
   3796 ****       230.5000 389.2500 -111.7500 Du        
   3797 ****       230.5000 389.2500 -111.5000 Du        
   3798 ****       230.5000 389.2500 -111.2500 Du        
   3799 ****       230.5000 389.2500 -111.0000 Du        
   3800 ****       230.5000 389.2500 -110.7500 Du        
   3801 ****       230.5000 389.2500 -110.5000 Du        
   3802 ****       230.5000 389.5000 -117.5000 Du        
   3803 ****       230.5000 389.5000 -117.2500 Du        
   3804 ****       230.5000 389.5000 -117.0000 Du        
   3805 ****       230.5000 389.5000 -116.7500 Du        
   3806 ****       230.5000 389.5000 -116.5000 Du        
   3807 ****       230.5000 389.5000 -116.2500 Du        
   3808 ****       230.5000 389.5000 -116.0000 Du        
   3809 ****       230.5000 389.5000 -115.7500 Du        
   3810 ****       230.5000 389.5000 -115.5000 Du        
   3811 ****       230.5000 389.5000 -115.2500 Du        
   3812 ****       230.5000 389.5000 -112.2500 Du        
   3813 ****       230.5000 389.5000 -112.0000 Du        
   3814 ****       230.5000 389.5000 -111.7500 Du        
   3815 ****       230.5000 389.5000 -111.5000 Du        
   3816 ****       230.5000 389.5000 -111.2500 Du        
   3817 ****       230.5000 389.5000 -111.0000 Du        
   3818 ****       230.5000 389.5000 -110.7500 Du        
   3819 ****       230.5000 389.5000 -110.5000 Du        
   3820 ****       230.5000 389.5000 -110.2500 Du        
   3821 ****       230.5000 389.7500 -117.7500 Du        
   3822 ****       230.5000 389.7500 -117.5000 Du        
   3823 ****       230.5000 389.7500 -117.2500 Du        
   3824 ****       230.5000 389.7500 -117.0000 Du        
   3825 ****       230.5000 389.7500 -116.7500 Du        
   3826 ****       230.5000 389.7500 -116.5000 Du        
   3827 ****       230.5000 389.7500 -116.2500 Du        
   3828 ****       230.5000 389.7500 -116.0000 Du        
   3829 ****       230.5000 389.7500 -115.7500 Du        
   3830 ****       230.5000 389.7500 -115.5000 Du        
   3831 ****       230.5000 389.7500 -112.0000 Du        
   3832 ****       230.5000 389.7500 -111.7500 Du        
   3833 ****       230.5000 389.7500 -111.5000 Du        
   3834 ****       230.5000 389.7500 -111.2500 Du        
   3835 ****       230.5000 389.7500 -111.0000 Du        
   3836 ****       230.5000 389.7500 -110.7500 Du        
   3837 ****       230.5000 389.7500 -110.5000 Du        
   3838 ****       230.5000 389.7500 -110.2500 Du        
   3839 ****       230.5000 390.0000 -117.7500 Du        
   3840 ****       230.5000 390.0000 -117.5000 Du        
   3841 ****       230.5000 390.0000 -117.2500 Du        
   3842 ****       230.5000 390.0000 -117.0000 Du        
   3843 ****       230.5000 390.0000 -116.7500 Du        
   3844 ****       230.5000 390.0000 -116.5000 Du        
   3845 ****       230.5000 390.0000 -116.2500 Du        
   3846 ****       230.5000 390.0000 -116.0000 Du        
   3847 ****       230.5000 390.0000 -115.7500 Du        
   3848 ****       230.5000 390.0000 -111.5000 Du        
   3849 ****       230.5000 390.0000 -111.2500 Du        
   3850 ****       230.5000 390.0000 -111.0000 Du        
   3851 ****       230.5000 390.0000 -110.7500 Du        
   3852 ****       230.5000 390.0000 -110.5000 Du        
   3853 ****       230.5000 390.0000 -110.2500 Du        
   3854 ****       230.5000 390.2500 -118.0000 Du        
   3855 ****       230.5000 390.2500 -117.7500 Du        
   3856 ****       230.5000 390.2500 -117.5000 Du        
   3857 ****       230.5000 390.2500 -117.2500 Du        
   3858 ****       230.5000 390.2500 -117.0000 Du        
   3859 ****       230.5000 390.2500 -116.7500 Du        
   3860 ****       230.5000 390.2500 -116.5000 Du        
   3861 ****       230.5000 390.2500 -116.2500 Du        
   3862 ****       230.5000 390.2500 -116.0000 Du        
   3863 ****       230.5000 390.2500 -110.5000 Du        
   3864 ****       230.5000 390.5000 -118.0000 Du        
   3865 ****       230.5000 390.5000 -117.7500 Du        
   3866 ****       230.5000 390.5000 -117.5000 Du        
   3867 ****       230.5000 390.5000 -117.2500 Du        
   3868 ****       230.5000 390.5000 -117.0000 Du        
   3869 ****       230.5000 390.5000 -116.7500 Du        
   3870 ****       230.5000 390.5000 -116.5000 Du        
   3871 ****       230.5000 390.5000 -116.2500 Du        
   3872 ****       230.5000 390.7500 -118.0000 Du        
   3873 ****       230.5000 390.7500 -117.7500 Du        
   3874 ****       230.5000 390.7500 -117.5000 Du        
   3875 ****       230.5000 390.7500 -117.2500 Du        
   3876 ****       230.5000 390.7500 -117.0000 Du        
   3877 ****       230.5000 390.7500 -116.7500 Du        
   3878 ****       230.5000 390.7500 -116.5000 Du        
   3879 ****       230.5000 390.7500 -116.2500 Du        
   3880 ****       230.5000 391.0000 -118.0000 Du        
   3881 ****       230.5000 391.0000 -117.7500 Du        
   3882 ****       230.5000 391.0000 -117.5000 Du        
   3883 ****       230.5000 391.0000 -117.2500 Du        
   3884 ****       230.5000 391.0000 -117.0000 Du        
   3885 ****       230.5000 391.0000 -116.7500 Du        
   3886 ****       230.5000 391.0000 -116.5000 Du        
   3887 ****       230.5000 391.2500 -117.7500 Du        
   3888 ****       230.5000 391.2500 -117.5000 Du        
   3889 ****       230.5000 391.2500 -117.2500 Du        
   3890 ****       230.5000 391.2500 -117.0000 Du        
   3891 ****       230.5000 391.2500 -116.7500 Du        
   3892 ****       230.7500 387.7500 -112.2500 Du        
   3893 ****       230.7500 387.7500 -112.0000 Du        
   3894 ****       230.7500 388.0000 -112.7500 Du        
   3895 ****       230.7500 388.0000 -112.5000 Du        
   3896 ****       230.7500 388.0000 -112.2500 Du        
   3897 ****       230.7500 388.0000 -112.0000 Du        
   3898 ****       230.7500 388.0000 -111.7500 Du        
   3899 ****       230.7500 388.0000 -111.5000 Du        
   3900 ****       230.7500 388.0000 -111.2500 Du        
   3901 ****       230.7500 388.2500 -113.0000 Du        
   3902 ****       230.7500 388.2500 -112.7500 Du        
   3903 ****       230.7500 388.2500 -112.5000 Du        
   3904 ****       230.7500 388.2500 -112.2500 Du        
   3905 ****       230.7500 388.2500 -112.0000 Du        
   3906 ****       230.7500 388.2500 -111.7500 Du        
   3907 ****       230.7500 388.2500 -111.5000 Du        
   3908 ****       230.7500 388.2500 -111.2500 Du        
   3909 ****       230.7500 388.2500 -111.0000 Du        
   3910 ****       230.7500 388.5000 -113.5000 Du        
   3911 ****       230.7500 388.5000 -113.2500 Du        
   3912 ****       230.7500 388.5000 -113.0000 Du        
   3913 ****       230.7500 388.5000 -112.7500 Du        
   3914 ****       230.7500 388.5000 -112.5000 Du        
   3915 ****       230.7500 388.5000 -112.2500 Du        
   3916 ****       230.7500 388.5000 -112.0000 Du        
   3917 ****       230.7500 388.5000 -111.7500 Du        
   3918 ****       230.7500 388.5000 -111.5000 Du        
   3919 ****       230.7500 388.5000 -111.2500 Du        
   3920 ****       230.7500 388.5000 -111.0000 Du        
   3921 ****       230.7500 388.7500 -113.7500 Du        
   3922 ****       230.7500 388.7500 -113.5000 Du        
   3923 ****       230.7500 388.7500 -113.2500 Du        
   3924 ****       230.7500 388.7500 -113.0000 Du        
   3925 ****       230.7500 388.7500 -112.7500 Du        
   3926 ****       230.7500 388.7500 -112.5000 Du        
   3927 ****       230.7500 388.7500 -112.2500 Du        
   3928 ****       230.7500 388.7500 -112.0000 Du        
   3929 ****       230.7500 388.7500 -111.7500 Du        
   3930 ****       230.7500 388.7500 -111.5000 Du        
   3931 ****       230.7500 388.7500 -111.2500 Du        
   3932 ****       230.7500 388.7500 -111.0000 Du        
   3933 ****       230.7500 388.7500 -110.7500 Du        
   3934 ****       230.7500 389.0000 -116.7500 Du        
   3935 ****       230.7500 389.0000 -116.5000 Du        
   3936 ****       230.7500 389.0000 -116.2500 Du        
   3937 ****       230.7500 389.0000 -116.0000 Du        
   3938 ****       230.7500 389.0000 -115.7500 Du        
   3939 ****       230.7500 389.0000 -114.7500 Du        
   3940 ****       230.7500 389.0000 -113.7500 Du        
   3941 ****       230.7500 389.0000 -113.5000 Du        
   3942 ****       230.7500 389.0000 -113.2500 Du        
   3943 ****       230.7500 389.0000 -113.0000 Du        
   3944 ****       230.7500 389.0000 -112.7500 Du        
   3945 ****       230.7500 389.0000 -112.5000 Du        
   3946 ****       230.7500 389.0000 -112.2500 Du        
   3947 ****       230.7500 389.0000 -112.0000 Du        
   3948 ****       230.7500 389.0000 -111.7500 Du        
   3949 ****       230.7500 389.0000 -111.5000 Du        
   3950 ****       230.7500 389.0000 -111.2500 Du        
   3951 ****       230.7500 389.0000 -111.0000 Du        
   3952 ****       230.7500 389.0000 -110.7500 Du        
   3953 ****       230.7500 389.0000 -110.5000 Du        
   3954 ****       230.7500 389.2500 -117.0000 Du        
   3955 ****       230.7500 389.2500 -116.7500 Du        
   3956 ****       230.7500 389.2500 -116.5000 Du        
   3957 ****       230.7500 389.2500 -116.2500 Du        
   3958 ****       230.7500 389.2500 -116.0000 Du        
   3959 ****       230.7500 389.2500 -115.7500 Du        
   3960 ****       230.7500 389.2500 -115.5000 Du        
   3961 ****       230.7500 389.2500 -115.2500 Du        
   3962 ****       230.7500 389.2500 -115.0000 Du        
   3963 ****       230.7500 389.2500 -114.7500 Du        
   3964 ****       230.7500 389.2500 -113.0000 Du        
   3965 ****       230.7500 389.2500 -112.7500 Du        
   3966 ****       230.7500 389.2500 -112.5000 Du        
   3967 ****       230.7500 389.2500 -112.2500 Du        
   3968 ****       230.7500 389.2500 -112.0000 Du        
   3969 ****       230.7500 389.2500 -111.7500 Du        
   3970 ****       230.7500 389.2500 -111.5000 Du        
   3971 ****       230.7500 389.2500 -111.2500 Du        
   3972 ****       230.7500 389.2500 -111.0000 Du        
   3973 ****       230.7500 389.2500 -110.7500 Du        
   3974 ****       230.7500 389.2500 -110.5000 Du        
   3975 ****       230.7500 389.5000 -117.2500 Du        
   3976 ****       230.7500 389.5000 -117.0000 Du        
   3977 ****       230.7500 389.5000 -116.7500 Du        
   3978 ****       230.7500 389.5000 -116.5000 Du        
   3979 ****       230.7500 389.5000 -116.2500 Du        
   3980 ****       230.7500 389.5000 -116.0000 Du        
   3981 ****       230.7500 389.5000 -115.7500 Du        
   3982 ****       230.7500 389.5000 -115.5000 Du        
   3983 ****       230.7500 389.5000 -115.2500 Du        
   3984 ****       230.7500 389.5000 -112.2500 Du        
   3985 ****       230.7500 389.5000 -112.0000 Du        
   3986 ****       230.7500 389.5000 -111.7500 Du        
   3987 ****       230.7500 389.5000 -111.5000 Du        
   3988 ****       230.7500 389.5000 -111.2500 Du        
   3989 ****       230.7500 389.5000 -111.0000 Du        
   3990 ****       230.7500 389.5000 -110.7500 Du        
   3991 ****       230.7500 389.5000 -110.5000 Du        
   3992 ****       230.7500 389.5000 -110.2500 Du        
   3993 ****       230.7500 389.7500 -117.5000 Du        
   3994 ****       230.7500 389.7500 -117.2500 Du        
   3995 ****       230.7500 389.7500 -117.0000 Du        
   3996 ****       230.7500 389.7500 -116.7500 Du        
   3997 ****       230.7500 389.7500 -116.5000 Du        
   3998 ****       230.7500 389.7500 -116.2500 Du        
   3999 ****       230.7500 389.7500 -116.0000 Du        
   4000 ****       230.7500 389.7500 -115.7500 Du        
   4001 ****       230.7500 389.7500 -115.5000 Du        
   4002 ****       230.7500 389.7500 -111.7500 Du        
   4003 ****       230.7500 389.7500 -111.5000 Du        
   4004 ****       230.7500 389.7500 -111.2500 Du        
   4005 ****       230.7500 389.7500 -111.0000 Du        
   4006 ****       230.7500 389.7500 -110.7500 Du        
   4007 ****       230.7500 389.7500 -110.5000 Du        
   4008 ****       230.7500 389.7500 -110.2500 Du        
   4009 ****       230.7500 390.0000 -117.7500 Du        
   4010 ****       230.7500 390.0000 -117.5000 Du        
   4011 ****       230.7500 390.0000 -117.2500 Du        
   4012 ****       230.7500 390.0000 -117.0000 Du        
   4013 ****       230.7500 390.0000 -116.7500 Du        
   4014 ****       230.7500 390.0000 -116.5000 Du        
   4015 ****       230.7500 390.0000 -116.2500 Du        
   4016 ****       230.7500 390.0000 -116.0000 Du        
   4017 ****       230.7500 390.0000 -115.7500 Du        
   4018 ****       230.7500 390.0000 -111.2500 Du        
   4019 ****       230.7500 390.0000 -111.0000 Du        
   4020 ****       230.7500 390.0000 -110.7500 Du        
   4021 ****       230.7500 390.0000 -110.5000 Du        
   4022 ****       230.7500 390.2500 -118.0000 Du        
   4023 ****       230.7500 390.2500 -117.7500 Du        
   4024 ****       230.7500 390.2500 -117.5000 Du        
   4025 ****       230.7500 390.2500 -117.2500 Du        
   4026 ****       230.7500 390.2500 -117.0000 Du        
   4027 ****       230.7500 390.2500 -116.7500 Du        
   4028 ****       230.7500 390.2500 -116.5000 Du        
   4029 ****       230.7500 390.2500 -116.2500 Du        
   4030 ****       230.7500 390.2500 -116.0000 Du        
   4031 ****       230.7500 390.5000 -118.0000 Du        
   4032 ****       230.7500 390.5000 -117.7500 Du        
   4033 ****       230.7500 390.5000 -117.5000 Du        
   4034 ****       230.7500 390.5000 -117.2500 Du        
   4035 ****       230.7500 390.5000 -117.0000 Du        
   4036 ****       230.7500 390.5000 -116.7500 Du        
   4037 ****       230.7500 390.5000 -116.5000 Du        
   4038 ****       230.7500 390.5000 -116.2500 Du        
   4039 ****       230.7500 390.7500 -118.0000 Du        
   4040 ****       230.7500 390.7500 -117.7500 Du        
   4041 ****       230.7500 390.7500 -117.5000 Du        
   4042 ****       230.7500 390.7500 -117.2500 Du        
   4043 ****       230.7500 390.7500 -117.0000 Du        
   4044 ****       230.7500 390.7500 -116.7500 Du        
   4045 ****       230.7500 390.7500 -116.5000 Du        
   4046 ****       230.7500 390.7500 -116.2500 Du        
   4047 ****       230.7500 391.0000 -118.0000 Du        
   4048 ****       230.7500 391.0000 -117.7500 Du        
   4049 ****       230.7500 391.0000 -117.5000 Du        
   4050 ****       230.7500 391.0000 -117.2500 Du        
   4051 ****       230.7500 391.0000 -117.0000 Du        
   4052 ****       230.7500 391.0000 -116.7500 Du        
   4053 ****       230.7500 391.0000 -116.5000 Du        
   4054 ****       230.7500 391.2500 -117.7500 Du        
   4055 ****       230.7500 391.2500 -117.5000 Du        
   4056 ****       230.7500 391.2500 -117.2500 Du        
   4057 ****       230.7500 391.2500 -117.0000 Du        
   4058 ****       230.7500 391.2500 -116.7500 Du        
   4059 ****       230.7500 391.5000 -117.2500 Du        
   4060 ****       230.7500 391.5000 -117.0000 Du        
   4061 ****       230.7500 391.5000 -116.7500 Du        
   4062 ****       230.7500 391.7500 -117.0000 Du        
   4063 ****       231.0000 388.0000 -112.7500 Du        
   4064 ****       231.0000 388.0000 -112.5000 Du        
   4065 ****       231.0000 388.0000 -112.2500 Du        
   4066 ****       231.0000 388.0000 -112.0000 Du        
   4067 ****       231.0000 388.0000 -111.7500 Du        
   4068 ****       231.0000 388.2500 -113.0000 Du        
   4069 ****       231.0000 388.2500 -112.7500 Du        
   4070 ****       231.0000 388.2500 -112.5000 Du        
   4071 ****       231.0000 388.2500 -112.2500 Du        
   4072 ****       231.0000 388.2500 -112.0000 Du        
   4073 ****       231.0000 388.2500 -111.7500 Du        
   4074 ****       231.0000 388.2500 -111.5000 Du        
   4075 ****       231.0000 388.5000 -113.5000 Du        
   4076 ****       231.0000 388.5000 -113.2500 Du        
   4077 ****       231.0000 388.5000 -113.0000 Du        
   4078 ****       231.0000 388.5000 -112.7500 Du        
   4079 ****       231.0000 388.5000 -112.5000 Du        
   4080 ****       231.0000 388.5000 -112.2500 Du        
   4081 ****       231.0000 388.5000 -112.0000 Du        
   4082 ****       231.0000 388.5000 -111.7500 Du        
   4083 ****       231.0000 388.5000 -111.5000 Du        
   4084 ****       231.0000 388.7500 -113.7500 Du        
   4085 ****       231.0000 388.7500 -113.5000 Du        
   4086 ****       231.0000 388.7500 -113.2500 Du        
   4087 ****       231.0000 388.7500 -113.0000 Du        
   4088 ****       231.0000 388.7500 -112.7500 Du        
   4089 ****       231.0000 388.7500 -112.5000 Du        
   4090 ****       231.0000 388.7500 -112.2500 Du        
   4091 ****       231.0000 388.7500 -112.0000 Du        
   4092 ****       231.0000 388.7500 -111.7500 Du        
   4093 ****       231.0000 388.7500 -111.5000 Du        
   4094 ****       231.0000 388.7500 -111.2500 Du        
   4095 ****       231.0000 389.0000 -116.2500 Du        
   4096 ****       231.0000 389.0000 -116.0000 Du        
   4097 ****       231.0000 389.0000 -114.0000 Du        
   4098 ****       231.0000 389.0000 -113.7500 Du        
   4099 ****       231.0000 389.0000 -113.5000 Du        
   4100 ****       231.0000 389.0000 -113.2500 Du        
   4101 ****       231.0000 389.0000 -113.0000 Du        
   4102 ****       231.0000 389.0000 -112.7500 Du        
   4103 ****       231.0000 389.0000 -112.5000 Du        
   4104 ****       231.0000 389.0000 -112.2500 Du        
   4105 ****       231.0000 389.0000 -112.0000 Du        
   4106 ****       231.0000 389.0000 -111.7500 Du        
   4107 ****       231.0000 389.0000 -111.5000 Du        
   4108 ****       231.0000 389.0000 -111.2500 Du        
   4109 ****       231.0000 389.0000 -111.0000 Du        
   4110 ****       231.0000 389.2500 -116.7500 Du        
   4111 ****       231.0000 389.2500 -116.5000 Du        
   4112 ****       231.0000 389.2500 -116.2500 Du        
   4113 ****       231.0000 389.2500 -116.0000 Du        
   4114 ****       231.0000 389.2500 -115.7500 Du        
   4115 ****       231.0000 389.2500 -115.5000 Du        
   4116 ****       231.0000 389.2500 -115.2500 Du        
   4117 ****       231.0000 389.2500 -115.0000 Du        
   4118 ****       231.0000 389.2500 -112.5000 Du        
   4119 ****       231.0000 389.2500 -112.2500 Du        
   4120 ****       231.0000 389.2500 -112.0000 Du        
   4121 ****       231.0000 389.2500 -111.7500 Du        
   4122 ****       231.0000 389.2500 -111.5000 Du        
   4123 ****       231.0000 389.2500 -111.2500 Du        
   4124 ****       231.0000 389.2500 -111.0000 Du        
   4125 ****       231.0000 389.2500 -110.7500 Du        
   4126 ****       231.0000 389.5000 -117.0000 Du        
   4127 ****       231.0000 389.5000 -116.7500 Du        
   4128 ****       231.0000 389.5000 -116.5000 Du        
   4129 ****       231.0000 389.5000 -116.2500 Du        
   4130 ****       231.0000 389.5000 -116.0000 Du        
   4131 ****       231.0000 389.5000 -115.7500 Du        
   4132 ****       231.0000 389.5000 -115.5000 Du        
   4133 ****       231.0000 389.5000 -112.0000 Du        
   4134 ****       231.0000 389.5000 -111.7500 Du        
   4135 ****       231.0000 389.5000 -111.5000 Du        
   4136 ****       231.0000 389.5000 -111.2500 Du        
   4137 ****       231.0000 389.5000 -111.0000 Du        
   4138 ****       231.0000 389.5000 -110.7500 Du        
   4139 ****       231.0000 389.5000 -110.5000 Du        
   4140 ****       231.0000 389.7500 -117.2500 Du        
   4141 ****       231.0000 389.7500 -117.0000 Du        
   4142 ****       231.0000 389.7500 -116.7500 Du        
   4143 ****       231.0000 389.7500 -116.5000 Du        
   4144 ****       231.0000 389.7500 -116.2500 Du        
   4145 ****       231.0000 389.7500 -116.0000 Du        
   4146 ****       231.0000 389.7500 -115.7500 Du        
   4147 ****       231.0000 389.7500 -111.5000 Du        
   4148 ****       231.0000 389.7500 -111.2500 Du        
   4149 ****       231.0000 389.7500 -111.0000 Du        
   4150 ****       231.0000 389.7500 -110.7500 Du        
   4151 ****       231.0000 389.7500 -110.5000 Du        
   4152 ****       231.0000 390.0000 -117.7500 Du        
   4153 ****       231.0000 390.0000 -117.5000 Du        
   4154 ****       231.0000 390.0000 -117.2500 Du        
   4155 ****       231.0000 390.0000 -117.0000 Du        
   4156 ****       231.0000 390.0000 -116.7500 Du        
   4157 ****       231.0000 390.0000 -116.5000 Du        
   4158 ****       231.0000 390.0000 -116.2500 Du        
   4159 ****       231.0000 390.0000 -116.0000 Du        
   4160 ****       231.0000 390.0000 -115.7500 Du        
   4161 ****       231.0000 390.0000 -111.0000 Du        
   4162 ****       231.0000 390.0000 -110.7500 Du        
   4163 ****       231.0000 390.2500 -117.7500 Du        
   4164 ****       231.0000 390.2500 -117.5000 Du        
   4165 ****       231.0000 390.2500 -117.2500 Du        
   4166 ****       231.0000 390.2500 -117.0000 Du        
   4167 ****       231.0000 390.2500 -116.7500 Du        
   4168 ****       231.0000 390.2500 -116.5000 Du        
   4169 ****       231.0000 390.2500 -116.2500 Du        
   4170 ****       231.0000 390.2500 -116.0000 Du        
   4171 ****       231.0000 390.5000 -117.7500 Du        
   4172 ****       231.0000 390.5000 -117.5000 Du        
   4173 ****       231.0000 390.5000 -117.2500 Du        
   4174 ****       231.0000 390.5000 -117.0000 Du        
   4175 ****       231.0000 390.5000 -116.7500 Du        
   4176 ****       231.0000 390.5000 -116.5000 Du        
   4177 ****       231.0000 390.5000 -116.2500 Du        
   4178 ****       231.0000 390.7500 -117.7500 Du        
   4179 ****       231.0000 390.7500 -117.5000 Du        
   4180 ****       231.0000 390.7500 -117.2500 Du        
   4181 ****       231.0000 390.7500 -117.0000 Du        
   4182 ****       231.0000 390.7500 -116.7500 Du        
   4183 ****       231.0000 390.7500 -116.5000 Du        
   4184 ****       231.0000 391.0000 -117.7500 Du        
   4185 ****       231.0000 391.0000 -117.5000 Du        
   4186 ****       231.0000 391.0000 -117.2500 Du        
   4187 ****       231.0000 391.0000 -117.0000 Du        
   4188 ****       231.0000 391.0000 -116.7500 Du        
   4189 ****       231.0000 391.0000 -116.5000 Du        
   4190 ****       231.0000 391.2500 -117.5000 Du        
   4191 ****       231.0000 391.2500 -117.2500 Du        
   4192 ****       231.0000 391.2500 -117.0000 Du        
   4193 ****       231.0000 391.2500 -116.7500 Du        
   4194 ****       231.0000 391.5000 -117.0000 Du        
   4195 ****       231.0000 391.5000 -116.7500 Du        
   4196 ****       231.2500 388.0000 -112.7500 Du        
   4197 ****       231.2500 388.0000 -112.5000 Du        
   4198 ****       231.2500 388.0000 -112.2500 Du        
   4199 ****       231.2500 388.2500 -113.0000 Du        
   4200 ****       231.2500 388.2500 -112.7500 Du        
   4201 ****       231.2500 388.2500 -112.5000 Du        
   4202 ****       231.2500 388.2500 -112.2500 Du        
   4203 ****       231.2500 388.2500 -112.0000 Du        
   4204 ****       231.2500 388.5000 -113.2500 Du        
   4205 ****       231.2500 388.5000 -113.0000 Du        
   4206 ****       231.2500 388.5000 -112.7500 Du        
   4207 ****       231.2500 388.5000 -112.5000 Du        
   4208 ****       231.2500 388.5000 -112.2500 Du        
   4209 ****       231.2500 388.5000 -112.0000 Du        
   4210 ****       231.2500 388.7500 -113.7500 Du        
   4211 ****       231.2500 388.7500 -113.5000 Du        
   4212 ****       231.2500 388.7500 -113.2500 Du        
   4213 ****       231.2500 388.7500 -113.0000 Du        
   4214 ****       231.2500 388.7500 -112.7500 Du        
   4215 ****       231.2500 388.7500 -112.5000 Du        
   4216 ****       231.2500 388.7500 -112.2500 Du        
   4217 ****       231.2500 388.7500 -112.0000 Du        
   4218 ****       231.2500 388.7500 -111.7500 Du        
   4219 ****       231.2500 389.0000 -114.0000 Du        
   4220 ****       231.2500 389.0000 -113.7500 Du        
   4221 ****       231.2500 389.0000 -113.5000 Du        
   4222 ****       231.2500 389.0000 -113.2500 Du        
   4223 ****       231.2500 389.0000 -113.0000 Du        
   4224 ****       231.2500 389.0000 -112.7500 Du        
   4225 ****       231.2500 389.0000 -112.5000 Du        
   4226 ****       231.2500 389.0000 -112.2500 Du        
   4227 ****       231.2500 389.0000 -112.0000 Du        
   4228 ****       231.2500 389.0000 -111.7500 Du        
   4229 ****       231.2500 389.2500 -116.5000 Du        
   4230 ****       231.2500 389.2500 -116.2500 Du        
   4231 ****       231.2500 389.2500 -116.0000 Du        
   4232 ****       231.2500 389.2500 -115.7500 Du        
   4233 ****       231.2500 389.2500 -115.5000 Du        
   4234 ****       231.2500 389.2500 -115.2500 Du        
   4235 ****       231.2500 389.2500 -115.0000 Du        
   4236 ****       231.2500 389.2500 -112.5000 Du        
   4237 ****       231.2500 389.2500 -112.2500 Du        
   4238 ****       231.2500 389.2500 -112.0000 Du        
   4239 ****       231.2500 389.2500 -111.7500 Du        
   4240 ****       231.2500 389.2500 -111.5000 Du        
   4241 ****       231.2500 389.5000 -116.7500 Du        
   4242 ****       231.2500 389.5000 -116.5000 Du        
   4243 ****       231.2500 389.5000 -116.2500 Du        
   4244 ****       231.2500 389.5000 -116.0000 Du        
   4245 ****       231.2500 389.5000 -115.7500 Du        
   4246 ****       231.2500 389.5000 -115.5000 Du        
   4247 ****       231.2500 389.5000 -115.2500 Du        
   4248 ****       231.2500 389.5000 -111.7500 Du        
   4249 ****       231.2500 389.5000 -111.5000 Du        
   4250 ****       231.2500 389.5000 -111.2500 Du        
   4251 ****       231.2500 389.7500 -117.2500 Du        
   4252 ****       231.2500 389.7500 -117.0000 Du        
   4253 ****       231.2500 389.7500 -116.7500 Du        
   4254 ****       231.2500 389.7500 -116.5000 Du        
   4255 ****       231.2500 389.7500 -116.2500 Du        
   4256 ****       231.2500 389.7500 -116.0000 Du        
   4257 ****       231.2500 389.7500 -115.7500 Du        
   4258 ****       231.2500 389.7500 -111.2500 Du        
   4259 ****       231.2500 390.0000 -117.5000 Du        
   4260 ****       231.2500 390.0000 -117.2500 Du        
   4261 ****       231.2500 390.0000 -117.0000 Du        
   4262 ****       231.2500 390.0000 -116.7500 Du        
   4263 ****       231.2500 390.0000 -116.5000 Du        
   4264 ****       231.2500 390.0000 -116.2500 Du        
   4265 ****       231.2500 390.0000 -116.0000 Du        
   4266 ****       231.2500 390.0000 -115.7500 Du        
   4267 ****       231.2500 390.2500 -117.7500 Du        
   4268 ****       231.2500 390.2500 -117.5000 Du        
   4269 ****       231.2500 390.2500 -117.2500 Du        
   4270 ****       231.2500 390.2500 -117.0000 Du        
   4271 ****       231.2500 390.2500 -116.7500 Du        
   4272 ****       231.2500 390.2500 -116.5000 Du        
   4273 ****       231.2500 390.2500 -116.2500 Du        
   4274 ****       231.2500 390.2500 -116.0000 Du        
   4275 ****       231.2500 390.5000 -117.7500 Du        
   4276 ****       231.2500 390.5000 -117.5000 Du        
   4277 ****       231.2500 390.5000 -117.2500 Du        
   4278 ****       231.2500 390.5000 -117.0000 Du        
   4279 ****       231.2500 390.5000 -116.7500 Du        
   4280 ****       231.2500 390.5000 -116.5000 Du        
   4281 ****       231.2500 390.5000 -116.2500 Du        
   4282 ****       231.2500 390.7500 -117.7500 Du        
   4283 ****       231.2500 390.7500 -117.5000 Du        
   4284 ****       231.2500 390.7500 -117.2500 Du        
   4285 ****       231.2500 390.7500 -117.0000 Du        
   4286 ****       231.2500 390.7500 -116.7500 Du        
   4287 ****       231.2500 390.7500 -116.5000 Du        
   4288 ****       231.2500 391.0000 -117.5000 Du        
   4289 ****       231.2500 391.0000 -117.2500 Du        
   4290 ****       231.2500 391.0000 -117.0000 Du        
   4291 ****       231.2500 391.0000 -116.7500 Du        
   4292 ****       231.2500 391.0000 -116.5000 Du        
   4293 ****       231.2500 391.2500 -117.2500 Du        
   4294 ****       231.2500 391.2500 -117.0000 Du        
   4295 ****       231.2500 391.2500 -116.7500 Du        
   4296 ****       231.5000 381.7500 -118.0000 Du        
   4297 ****       231.5000 381.7500 -117.7500 Du        
   4298 ****       231.5000 382.0000 -118.2500 Du        
   4299 ****       231.5000 382.0000 -118.0000 Du        
   4300 ****       231.5000 382.0000 -117.7500 Du        
   4301 ****       231.5000 382.2500 -118.5000 Du        
   4302 ****       231.5000 382.2500 -118.2500 Du        
   4303 ****       231.5000 382.2500 -118.0000 Du        
   4304 ****       231.5000 382.5000 -119.0000 Du        
   4305 ****       231.5000 382.5000 -118.7500 Du        
   4306 ****       231.5000 382.5000 -118.5000 Du        
   4307 ****       231.5000 382.5000 -118.2500 Du        
   4308 ****       231.5000 382.7500 -119.0000 Du        
   4309 ****       231.5000 382.7500 -118.7500 Du        
   4310 ****       231.5000 382.7500 -118.5000 Du        
   4311 ****       231.5000 382.7500 -118.2500 Du        
   4312 ****       231.5000 383.0000 -119.0000 Du        
   4313 ****       231.5000 383.0000 -118.7500 Du        
   4314 ****       231.5000 383.0000 -118.5000 Du        
   4315 ****       231.5000 388.0000 -112.5000 Du        
   4316 ****       231.5000 388.2500 -113.0000 Du        
   4317 ****       231.5000 388.2500 -112.7500 Du        
   4318 ****       231.5000 388.2500 -112.5000 Du        
   4319 ****       231.5000 388.2500 -112.2500 Du        
   4320 ****       231.5000 388.5000 -113.2500 Du        
   4321 ****       231.5000 388.5000 -113.0000 Du        
   4322 ****       231.5000 388.5000 -112.7500 Du        
   4323 ****       231.5000 388.5000 -112.5000 Du        
   4324 ****       231.5000 388.5000 -112.2500 Du        
   4325 ****       231.5000 388.7500 -113.7500 Du        
   4326 ****       231.5000 388.7500 -113.5000 Du        
   4327 ****       231.5000 388.7500 -113.2500 Du        
   4328 ****       231.5000 388.7500 -113.0000 Du        
   4329 ****       231.5000 388.7500 -112.7500 Du        
   4330 ****       231.5000 388.7500 -112.5000 Du        
   4331 ****       231.5000 388.7500 -112.2500 Du        
   4332 ****       231.5000 389.0000 -114.0000 Du        
   4333 ****       231.5000 389.0000 -113.7500 Du        
   4334 ****       231.5000 389.0000 -113.5000 Du        
   4335 ****       231.5000 389.0000 -113.2500 Du        
   4336 ****       231.5000 389.0000 -113.0000 Du        
   4337 ****       231.5000 389.0000 -112.7500 Du        
   4338 ****       231.5000 389.0000 -112.5000 Du        
   4339 ****       231.5000 389.0000 -112.2500 Du        
   4340 ****       231.5000 389.0000 -112.0000 Du        
   4341 ****       231.5000 389.2500 -116.2500 Du        
   4342 ****       231.5000 389.2500 -116.0000 Du        
   4343 ****       231.5000 389.2500 -115.7500 Du        
   4344 ****       231.5000 389.2500 -115.5000 Du        
   4345 ****       231.5000 389.2500 -115.2500 Du        
   4346 ****       231.5000 389.2500 -115.0000 Du        
   4347 ****       231.5000 389.2500 -112.2500 Du        
   4348 ****       231.5000 389.2500 -112.0000 Du        
   4349 ****       231.5000 389.5000 -116.7500 Du        
   4350 ****       231.5000 389.5000 -116.5000 Du        
   4351 ****       231.5000 389.5000 -116.2500 Du        
   4352 ****       231.5000 389.5000 -116.0000 Du        
   4353 ****       231.5000 389.5000 -115.7500 Du        
   4354 ****       231.5000 389.5000 -115.5000 Du        
   4355 ****       231.5000 389.5000 -115.2500 Du        
   4356 ****       231.5000 389.7500 -117.0000 Du        
   4357 ****       231.5000 389.7500 -116.7500 Du        
   4358 ****       231.5000 389.7500 -116.5000 Du        
   4359 ****       231.5000 389.7500 -116.2500 Du        
   4360 ****       231.5000 389.7500 -116.0000 Du        
   4361 ****       231.5000 389.7500 -115.7500 Du        
   4362 ****       231.5000 389.7500 -115.5000 Du        
   4363 ****       231.5000 390.0000 -117.2500 Du        
   4364 ****       231.5000 390.0000 -117.0000 Du        
   4365 ****       231.5000 390.0000 -116.7500 Du        
   4366 ****       231.5000 390.0000 -116.5000 Du        
   4367 ****       231.5000 390.0000 -116.2500 Du        
   4368 ****       231.5000 390.0000 -116.0000 Du        
   4369 ****       231.5000 390.0000 -115.7500 Du        
   4370 ****       231.5000 390.2500 -117.5000 Du        
   4371 ****       231.5000 390.2500 -117.2500 Du        
   4372 ****       231.5000 390.2500 -117.0000 Du        
   4373 ****       231.5000 390.2500 -116.7500 Du        
   4374 ****       231.5000 390.2500 -116.5000 Du        
   4375 ****       231.5000 390.2500 -116.2500 Du        
   4376 ****       231.5000 390.2500 -116.0000 Du        
   4377 ****       231.5000 390.5000 -117.5000 Du        
   4378 ****       231.5000 390.5000 -117.2500 Du        
   4379 ****       231.5000 390.5000 -117.0000 Du        
   4380 ****       231.5000 390.5000 -116.7500 Du        
   4381 ****       231.5000 390.5000 -116.5000 Du        
   4382 ****       231.5000 390.5000 -116.2500 Du        
   4383 ****       231.5000 390.7500 -117.5000 Du        
   4384 ****       231.5000 390.7500 -117.2500 Du        
   4385 ****       231.5000 390.7500 -117.0000 Du        
   4386 ****       231.5000 390.7500 -116.7500 Du        
   4387 ****       231.5000 390.7500 -116.5000 Du        
   4388 ****       231.5000 391.0000 -117.2500 Du        
   4389 ****       231.5000 391.0000 -117.0000 Du        
   4390 ****       231.5000 391.0000 -116.7500 Du        
   4391 ****       231.5000 391.0000 -116.5000 Du        
   4392 ****       231.5000 391.2500 -117.0000 Du        
   4393 ****       231.5000 391.2500 -116.7500 Du        
   4394 ****       231.7500 381.7500 -118.0000 Du        
   4395 ****       231.7500 381.7500 -117.7500 Du        
   4396 ****       231.7500 382.0000 -118.5000 Du        
   4397 ****       231.7500 382.0000 -118.2500 Du        
   4398 ****       231.7500 382.0000 -118.0000 Du        
   4399 ****       231.7500 382.2500 -118.7500 Du        
   4400 ****       231.7500 382.2500 -118.5000 Du        
   4401 ****       231.7500 382.2500 -118.2500 Du        
   4402 ****       231.7500 382.2500 -118.0000 Du        
   4403 ****       231.7500 382.5000 -119.2500 Du        
   4404 ****       231.7500 382.5000 -119.0000 Du        
   4405 ****       231.7500 382.5000 -118.7500 Du        
   4406 ****       231.7500 382.5000 -118.5000 Du        
   4407 ****       231.7500 382.5000 -118.2500 Du        
   4408 ****       231.7500 382.7500 -119.2500 Du        
   4409 ****       231.7500 382.7500 -119.0000 Du        
   4410 ****       231.7500 382.7500 -118.7500 Du        
   4411 ****       231.7500 382.7500 -118.5000 Du        
   4412 ****       231.7500 382.7500 -118.2500 Du        
   4413 ****       231.7500 383.0000 -119.0000 Du        
   4414 ****       231.7500 383.0000 -118.7500 Du        
   4415 ****       231.7500 383.0000 -118.5000 Du        
   4416 ****       231.7500 388.2500 -112.7500 Du        
   4417 ****       231.7500 388.5000 -113.2500 Du        
   4418 ****       231.7500 388.5000 -113.0000 Du        
   4419 ****       231.7500 388.5000 -112.7500 Du        
   4420 ****       231.7500 388.5000 -112.5000 Du        
   4421 ****       231.7500 388.7500 -113.5000 Du        
   4422 ****       231.7500 388.7500 -113.2500 Du        
   4423 ****       231.7500 388.7500 -113.0000 Du        
   4424 ****       231.7500 388.7500 -112.7500 Du        
   4425 ****       231.7500 388.7500 -112.5000 Du        
   4426 ****       231.7500 389.0000 -113.7500 Du        
   4427 ****       231.7500 389.0000 -113.5000 Du        
   4428 ****       231.7500 389.0000 -113.2500 Du        
   4429 ****       231.7500 389.0000 -113.0000 Du        
   4430 ****       231.7500 389.0000 -112.7500 Du        
   4431 ****       231.7500 389.0000 -112.5000 Du        
   4432 ****       231.7500 389.0000 -112.2500 Du        
   4433 ****       231.7500 389.2500 -116.0000 Du        
   4434 ****       231.7500 389.2500 -115.7500 Du        
   4435 ****       231.7500 389.2500 -115.5000 Du        
   4436 ****       231.7500 389.5000 -116.5000 Du        
   4437 ****       231.7500 389.5000 -116.2500 Du        
   4438 ****       231.7500 389.5000 -116.0000 Du        
   4439 ****       231.7500 389.5000 -115.7500 Du        
   4440 ****       231.7500 389.5000 -115.5000 Du        
   4441 ****       231.7500 389.5000 -115.2500 Du        
   4442 ****       231.7500 389.7500 -116.7500 Du        
   4443 ****       231.7500 389.7500 -116.5000 Du        
   4444 ****       231.7500 389.7500 -116.2500 Du        
   4445 ****       231.7500 389.7500 -116.0000 Du        
   4446 ****       231.7500 389.7500 -115.7500 Du        
   4447 ****       231.7500 389.7500 -115.5000 Du        
   4448 ****       231.7500 390.0000 -117.2500 Du        
   4449 ****       231.7500 390.0000 -117.0000 Du        
   4450 ****       231.7500 390.0000 -116.7500 Du        
   4451 ****       231.7500 390.0000 -116.5000 Du        
   4452 ****       231.7500 390.0000 -116.2500 Du        
   4453 ****       231.7500 390.0000 -116.0000 Du        
   4454 ****       231.7500 390.0000 -115.7500 Du        
   4455 ****       231.7500 390.2500 -117.5000 Du        
   4456 ****       231.7500 390.2500 -117.2500 Du        
   4457 ****       231.7500 390.2500 -117.0000 Du        
   4458 ****       231.7500 390.2500 -116.7500 Du        
   4459 ****       231.7500 390.2500 -116.5000 Du        
   4460 ****       231.7500 390.2500 -116.2500 Du        
   4461 ****       231.7500 390.2500 -116.0000 Du        
   4462 ****       231.7500 390.5000 -117.5000 Du        
   4463 ****       231.7500 390.5000 -117.2500 Du        
   4464 ****       231.7500 390.5000 -117.0000 Du        
   4465 ****       231.7500 390.5000 -116.7500 Du        
   4466 ****       231.7500 390.5000 -116.5000 Du        
   4467 ****       231.7500 390.5000 -116.2500 Du        
   4468 ****       231.7500 390.7500 -117.2500 Du        
   4469 ****       231.7500 390.7500 -117.0000 Du        
   4470 ****       231.7500 390.7500 -116.7500 Du        
   4471 ****       231.7500 390.7500 -116.5000 Du        
   4472 ****       231.7500 391.0000 -117.0000 Du        
   4473 ****       231.7500 391.0000 -116.7500 Du        
   4474 ****       232.0000 381.7500 -118.0000 Du        
   4475 ****       232.0000 382.0000 -118.5000 Du        
   4476 ****       232.0000 382.0000 -118.2500 Du        
   4477 ****       232.0000 382.0000 -118.0000 Du        
   4478 ****       232.0000 382.2500 -119.0000 Du        
   4479 ****       232.0000 382.2500 -118.7500 Du        
   4480 ****       232.0000 382.2500 -118.5000 Du        
   4481 ****       232.0000 382.2500 -118.2500 Du        
   4482 ****       232.0000 382.2500 -118.0000 Du        
   4483 ****       232.0000 382.5000 -119.2500 Du        
   4484 ****       232.0000 382.5000 -119.0000 Du        
   4485 ****       232.0000 382.5000 -118.7500 Du        
   4486 ****       232.0000 382.5000 -118.5000 Du        
   4487 ****       232.0000 382.5000 -118.2500 Du        
   4488 ****       232.0000 382.7500 -119.5000 Du        
   4489 ****       232.0000 382.7500 -119.2500 Du        
   4490 ****       232.0000 382.7500 -119.0000 Du        
   4491 ****       232.0000 382.7500 -118.7500 Du        
   4492 ****       232.0000 382.7500 -118.5000 Du        
   4493 ****       232.0000 382.7500 -118.2500 Du        
   4494 ****       232.0000 383.0000 -119.2500 Du        
   4495 ****       232.0000 383.0000 -119.0000 Du        
   4496 ****       232.0000 383.0000 -118.7500 Du        
   4497 ****       232.0000 383.0000 -118.5000 Du        
   4498 ****       232.0000 388.5000 -113.0000 Du        
   4499 ****       232.0000 388.5000 -112.7500 Du        
   4500 ****       232.0000 388.7500 -113.2500 Du        
   4501 ****       232.0000 388.7500 -113.0000 Du        
   4502 ****       232.0000 388.7500 -112.7500 Du        
   4503 ****       232.0000 389.0000 -113.2500 Du        
   4504 ****       232.0000 389.0000 -113.0000 Du        
   4505 ****       232.0000 389.0000 -112.7500 Du        
   4506 ****       232.0000 389.0000 -112.5000 Du        
   4507 ****       232.0000 389.5000 -116.5000 Du        
   4508 ****       232.0000 389.5000 -116.2500 Du        
   4509 ****       232.0000 389.5000 -116.0000 Du        
   4510 ****       232.0000 389.5000 -115.7500 Du        
   4511 ****       232.0000 389.5000 -115.5000 Du        
   4512 ****       232.0000 389.5000 -115.2500 Du        
   4513 ****       232.0000 389.7500 -116.7500 Du        
   4514 ****       232.0000 389.7500 -116.5000 Du        
   4515 ****       232.0000 389.7500 -116.2500 Du        
   4516 ****       232.0000 389.7500 -116.0000 Du        
   4517 ****       232.0000 389.7500 -115.7500 Du        
   4518 ****       232.0000 389.7500 -115.5000 Du        
   4519 ****       232.0000 390.0000 -117.0000 Du        
   4520 ****       232.0000 390.0000 -116.7500 Du        
   4521 ****       232.0000 390.0000 -116.5000 Du        
   4522 ****       232.0000 390.0000 -116.2500 Du        
   4523 ****       232.0000 390.0000 -116.0000 Du        
   4524 ****       232.0000 390.0000 -115.7500 Du        
   4525 ****       232.0000 390.2500 -117.2500 Du        
   4526 ****       232.0000 390.2500 -117.0000 Du        
   4527 ****       232.0000 390.2500 -116.7500 Du        
   4528 ****       232.0000 390.2500 -116.5000 Du        
   4529 ****       232.0000 390.2500 -116.2500 Du        
   4530 ****       232.0000 390.2500 -116.0000 Du        
   4531 ****       232.0000 390.5000 -117.2500 Du        
   4532 ****       232.0000 390.5000 -117.0000 Du        
   4533 ****       232.0000 390.5000 -116.7500 Du        
   4534 ****       232.0000 390.5000 -116.5000 Du        
   4535 ****       232.0000 390.5000 -116.2500 Du        
   4536 ****       232.0000 390.7500 -117.2500 Du        
   4537 ****       232.0000 390.7500 -117.0000 Du        
   4538 ****       232.0000 390.7500 -116.7500 Du        
   4539 ****       232.0000 390.7500 -116.5000 Du        
   4540 ****       232.0000 391.0000 -116.7500 Du        
   4541 ****       232.2500 381.7500 -118.0000 Du        
   4542 ****       232.2500 382.0000 -118.5000 Du        
   4543 ****       232.2500 382.0000 -118.2500 Du        
   4544 ****       232.2500 382.0000 -118.0000 Du        
   4545 ****       232.2500 382.2500 -119.0000 Du        
   4546 ****       232.2500 382.2500 -118.7500 Du        
   4547 ****       232.2500 382.2500 -118.5000 Du        
   4548 ****       232.2500 382.2500 -118.2500 Du        
   4549 ****       232.2500 382.2500 -118.0000 Du        
   4550 ****       232.2500 382.5000 -119.2500 Du        
   4551 ****       232.2500 382.5000 -119.0000 Du        
   4552 ****       232.2500 382.5000 -118.7500 Du        
   4553 ****       232.2500 382.5000 -118.5000 Du        
   4554 ****       232.2500 382.5000 -118.2500 Du        
   4555 ****       232.2500 382.7500 -119.5000 Du        
   4556 ****       232.2500 382.7500 -119.2500 Du        
   4557 ****       232.2500 382.7500 -119.0000 Du        
   4558 ****       232.2500 382.7500 -118.7500 Du        
   4559 ****       232.2500 382.7500 -118.5000 Du        
   4560 ****       232.2500 382.7500 -118.2500 Du        
   4561 ****       232.2500 383.0000 -119.2500 Du        
   4562 ****       232.2500 383.0000 -119.0000 Du        
   4563 ****       232.2500 383.0000 -118.7500 Du        
   4564 ****       232.2500 383.0000 -118.5000 Du        
   4565 ****       232.2500 388.7500 -113.2500 Du        
   4566 ****       232.2500 388.7500 -113.0000 Du        
   4567 ****       232.2500 389.0000 -113.2500 Du        
   4568 ****       232.2500 389.0000 -113.0000 Du        
   4569 ****       232.2500 389.5000 -116.2500 Du        
   4570 ****       232.2500 389.5000 -116.0000 Du        
   4571 ****       232.2500 389.5000 -115.7500 Du        
   4572 ****       232.2500 389.5000 -115.5000 Du        
   4573 ****       232.2500 389.5000 -115.2500 Du        
   4574 ****       232.2500 389.7500 -116.7500 Du        
   4575 ****       232.2500 389.7500 -116.5000 Du        
   4576 ****       232.2500 389.7500 -116.2500 Du        
   4577 ****       232.2500 389.7500 -116.0000 Du        
   4578 ****       232.2500 389.7500 -115.7500 Du        
   4579 ****       232.2500 389.7500 -115.5000 Du        
   4580 ****       232.2500 389.7500 -115.2500 Du        
   4581 ****       232.2500 390.0000 -117.0000 Du        
   4582 ****       232.2500 390.0000 -116.7500 Du        
   4583 ****       232.2500 390.0000 -116.5000 Du        
   4584 ****       232.2500 390.0000 -116.2500 Du        
   4585 ****       232.2500 390.0000 -116.0000 Du        
   4586 ****       232.2500 390.0000 -115.7500 Du        
   4587 ****       232.2500 390.2500 -117.2500 Du        
   4588 ****       232.2500 390.2500 -117.0000 Du        
   4589 ****       232.2500 390.2500 -116.7500 Du        
   4590 ****       232.2500 390.2500 -116.5000 Du        
   4591 ****       232.2500 390.2500 -116.2500 Du        
   4592 ****       232.2500 390.2500 -116.0000 Du        
   4593 ****       232.2500 390.5000 -117.2500 Du        
   4594 ****       232.2500 390.5000 -117.0000 Du        
   4595 ****       232.2500 390.5000 -116.7500 Du        
   4596 ****       232.2500 390.5000 -116.5000 Du        
   4597 ****       232.2500 390.5000 -116.2500 Du        
   4598 ****       232.2500 390.7500 -117.0000 Du        
   4599 ****       232.2500 390.7500 -116.7500 Du        
   4600 ****       232.2500 390.7500 -116.5000 Du        
   4601 ****       232.2500 391.0000 -116.7500 Du        
   4602 ****       232.5000 382.0000 -118.2500 Du        
   4603 ****       232.5000 382.0000 -118.0000 Du        
   4604 ****       232.5000 382.2500 -119.0000 Du        
   4605 ****       232.5000 382.2500 -118.7500 Du        
   4606 ****       232.5000 382.2500 -118.5000 Du        
   4607 ****       232.5000 382.2500 -118.2500 Du        
   4608 ****       232.5000 382.2500 -118.0000 Du        
   4609 ****       232.5000 382.5000 -119.2500 Du        
   4610 ****       232.5000 382.5000 -119.0000 Du        
   4611 ****       232.5000 382.5000 -118.7500 Du        
   4612 ****       232.5000 382.5000 -118.5000 Du        
   4613 ****       232.5000 382.5000 -118.2500 Du        
   4614 ****       232.5000 382.7500 -119.2500 Du        
   4615 ****       232.5000 382.7500 -119.0000 Du        
   4616 ****       232.5000 382.7500 -118.7500 Du        
   4617 ****       232.5000 382.7500 -118.5000 Du        
   4618 ****       232.5000 382.7500 -118.2500 Du        
   4619 ****       232.5000 383.0000 -119.2500 Du        
   4620 ****       232.5000 383.0000 -119.0000 Du        
   4621 ****       232.5000 383.0000 -118.7500 Du        
   4622 ****       232.5000 383.0000 -118.5000 Du        
   4623 ****       232.5000 388.7500 -113.0000 Du        
   4624 ****       232.5000 389.0000 -113.2500 Du        
   4625 ****       232.5000 389.0000 -113.0000 Du        
   4626 ****       232.5000 389.5000 -116.2500 Du        
   4627 ****       232.5000 389.5000 -116.0000 Du        
   4628 ****       232.5000 389.5000 -115.7500 Du        
   4629 ****       232.5000 389.5000 -115.5000 Du        
   4630 ****       232.5000 389.5000 -115.2500 Du        
   4631 ****       232.5000 389.7500 -116.7500 Du        
   4632 ****       232.5000 389.7500 -116.5000 Du        
   4633 ****       232.5000 389.7500 -116.2500 Du        
   4634 ****       232.5000 389.7500 -116.0000 Du        
   4635 ****       232.5000 389.7500 -115.7500 Du        
   4636 ****       232.5000 389.7500 -115.5000 Du        
   4637 ****       232.5000 389.7500 -115.2500 Du        
   4638 ****       232.5000 390.0000 -117.0000 Du        
   4639 ****       232.5000 390.0000 -116.7500 Du        
   4640 ****       232.5000 390.0000 -116.5000 Du        
   4641 ****       232.5000 390.0000 -116.2500 Du        
   4642 ****       232.5000 390.0000 -116.0000 Du        
   4643 ****       232.5000 390.0000 -115.7500 Du        
   4644 ****       232.5000 390.0000 -115.5000 Du        
   4645 ****       232.5000 390.2500 -117.2500 Du        
   4646 ****       232.5000 390.2500 -117.0000 Du        
   4647 ****       232.5000 390.2500 -116.7500 Du        
   4648 ****       232.5000 390.2500 -116.5000 Du        
   4649 ****       232.5000 390.2500 -116.2500 Du        
   4650 ****       232.5000 390.2500 -116.0000 Du        
   4651 ****       232.5000 390.2500 -115.7500 Du        
   4652 ****       232.5000 390.5000 -117.2500 Du        
   4653 ****       232.5000 390.5000 -117.0000 Du        
   4654 ****       232.5000 390.5000 -116.7500 Du        
   4655 ****       232.5000 390.5000 -116.5000 Du        
   4656 ****       232.5000 390.5000 -116.2500 Du        
   4657 ****       232.5000 390.5000 -116.0000 Du        
   4658 ****       232.5000 390.7500 -117.0000 Du        
   4659 ****       232.5000 390.7500 -116.7500 Du        
   4660 ****       232.5000 390.7500 -116.5000 Du        
   4661 ****       232.5000 390.7500 -116.2500 Du        
   4662 ****       232.5000 391.0000 -116.7500 Du        
   4663 ****       232.7500 382.0000 -118.2500 Du        
   4664 ****       232.7500 382.0000 -118.0000 Du        
   4665 ****       232.7500 382.2500 -119.0000 Du        
   4666 ****       232.7500 382.2500 -118.7500 Du        
   4667 ****       232.7500 382.2500 -118.5000 Du        
   4668 ****       232.7500 382.2500 -118.2500 Du        
   4669 ****       232.7500 382.2500 -118.0000 Du        
   4670 ****       232.7500 382.5000 -119.2500 Du        
   4671 ****       232.7500 382.5000 -119.0000 Du        
   4672 ****       232.7500 382.5000 -118.7500 Du        
   4673 ****       232.7500 382.5000 -118.5000 Du        
   4674 ****       232.7500 382.5000 -118.2500 Du        
   4675 ****       232.7500 382.7500 -119.2500 Du        
   4676 ****       232.7500 382.7500 -119.0000 Du        
   4677 ****       232.7500 382.7500 -118.7500 Du        
   4678 ****       232.7500 382.7500 -118.5000 Du        
   4679 ****       232.7500 382.7500 -118.2500 Du        
   4680 ****       232.7500 383.0000 -119.2500 Du        
   4681 ****       232.7500 383.0000 -119.0000 Du        
   4682 ****       232.7500 383.0000 -118.7500 Du        
   4683 ****       232.7500 383.0000 -118.5000 Du        
   4684 ****       232.7500 389.5000 -116.2500 Du        
   4685 ****       232.7500 389.5000 -116.0000 Du        
   4686 ****       232.7500 389.5000 -115.7500 Du        
   4687 ****       232.7500 389.5000 -115.5000 Du        
   4688 ****       232.7500 389.5000 -115.2500 Du        
   4689 ****       232.7500 389.5000 -115.0000 Du        
   4690 ****       232.7500 389.7500 -116.7500 Du        
   4691 ****       232.7500 389.7500 -116.5000 Du        
   4692 ****       232.7500 389.7500 -116.2500 Du        
   4693 ****       232.7500 389.7500 -116.0000 Du        
   4694 ****       232.7500 389.7500 -115.7500 Du        
   4695 ****       232.7500 389.7500 -115.5000 Du        
   4696 ****       232.7500 389.7500 -115.2500 Du        
   4697 ****       232.7500 389.7500 -115.0000 Du        
   4698 ****       232.7500 390.0000 -117.0000 Du        
   4699 ****       232.7500 390.0000 -116.7500 Du        
   4700 ****       232.7500 390.0000 -116.5000 Du        
   4701 ****       232.7500 390.0000 -116.2500 Du        
   4702 ****       232.7500 390.0000 -116.0000 Du        
   4703 ****       232.7500 390.0000 -115.7500 Du        
   4704 ****       232.7500 390.0000 -115.5000 Du        
   4705 ****       232.7500 390.2500 -117.2500 Du        
   4706 ****       232.7500 390.2500 -117.0000 Du        
   4707 ****       232.7500 390.2500 -116.7500 Du        
   4708 ****       232.7500 390.2500 -116.5000 Du        
   4709 ****       232.7500 390.2500 -116.2500 Du        
   4710 ****       232.7500 390.2500 -116.0000 Du        
   4711 ****       232.7500 390.2500 -115.7500 Du        
   4712 ****       232.7500 390.5000 -117.2500 Du        
   4713 ****       232.7500 390.5000 -117.0000 Du        
   4714 ****       232.7500 390.5000 -116.7500 Du        
   4715 ****       232.7500 390.5000 -116.5000 Du        
   4716 ****       232.7500 390.5000 -116.2500 Du        
   4717 ****       232.7500 390.5000 -116.0000 Du        
   4718 ****       232.7500 390.7500 -117.0000 Du        
   4719 ****       232.7500 390.7500 -116.7500 Du        
   4720 ****       232.7500 390.7500 -116.5000 Du        
   4721 ****       232.7500 390.7500 -116.2500 Du        
   4722 ****       232.7500 391.0000 -116.7500 Du        
   4723 ****       232.7500 391.0000 -116.5000 Du        
   4724 ****       233.0000 382.0000 -118.2500 Du        
   4725 ****       233.0000 382.2500 -119.0000 Du        
   4726 ****       233.0000 382.2500 -118.7500 Du        
   4727 ****       233.0000 382.2500 -118.5000 Du        
   4728 ****       233.0000 382.2500 -118.2500 Du        
   4729 ****       233.0000 382.2500 -118.0000 Du        
   4730 ****       233.0000 382.5000 -119.2500 Du        
   4731 ****       233.0000 382.5000 -119.0000 Du        
   4732 ****       233.0000 382.5000 -118.7500 Du        
   4733 ****       233.0000 382.5000 -118.5000 Du        
   4734 ****       233.0000 382.5000 -118.2500 Du        
   4735 ****       233.0000 382.7500 -119.2500 Du        
   4736 ****       233.0000 382.7500 -119.0000 Du        
   4737 ****       233.0000 382.7500 -118.7500 Du        
   4738 ****       233.0000 382.7500 -118.5000 Du        
   4739 ****       233.0000 382.7500 -118.2500 Du        
   4740 ****       233.0000 383.0000 -119.2500 Du        
   4741 ****       233.0000 383.0000 -119.0000 Du        
   4742 ****       233.0000 383.0000 -118.7500 Du        
   4743 ****       233.0000 383.0000 -118.5000 Du        
   4744 ****       233.0000 389.5000 -116.2500 Du        
   4745 ****       233.0000 389.5000 -116.0000 Du        
   4746 ****       233.0000 389.5000 -115.7500 Du        
   4747 ****       233.0000 389.5000 -115.5000 Du        
   4748 ****       233.0000 389.5000 -115.2500 Du        
   4749 ****       233.0000 389.5000 -115.0000 Du        
   4750 ****       233.0000 389.5000 -114.7500 Du        
   4751 ****       233.0000 389.7500 -116.7500 Du        
   4752 ****       233.0000 389.7500 -116.5000 Du        
   4753 ****       233.0000 389.7500 -116.2500 Du        
   4754 ****       233.0000 389.7500 -116.0000 Du        
   4755 ****       233.0000 389.7500 -115.7500 Du        
   4756 ****       233.0000 389.7500 -115.5000 Du        
   4757 ****       233.0000 389.7500 -115.2500 Du        
   4758 ****       233.0000 389.7500 -115.0000 Du        
   4759 ****       233.0000 390.0000 -117.0000 Du        
   4760 ****       233.0000 390.0000 -116.7500 Du        
   4761 ****       233.0000 390.0000 -116.5000 Du        
   4762 ****       233.0000 390.0000 -116.2500 Du        
   4763 ****       233.0000 390.0000 -116.0000 Du        
   4764 ****       233.0000 390.0000 -115.7500 Du        
   4765 ****       233.0000 390.0000 -115.5000 Du        
   4766 ****       233.0000 390.0000 -115.2500 Du        
   4767 ****       233.0000 390.2500 -117.2500 Du        
   4768 ****       233.0000 390.2500 -117.0000 Du        
   4769 ****       233.0000 390.2500 -116.7500 Du        
   4770 ****       233.0000 390.2500 -116.5000 Du        
   4771 ****       233.0000 390.2500 -116.2500 Du        
   4772 ****       233.0000 390.2500 -116.0000 Du        
   4773 ****       233.0000 390.2500 -115.7500 Du        
   4774 ****       233.0000 390.2500 -115.5000 Du        
   4775 ****       233.0000 390.5000 -117.2500 Du        
   4776 ****       233.0000 390.5000 -117.0000 Du        
   4777 ****       233.0000 390.5000 -116.7500 Du        
   4778 ****       233.0000 390.5000 -116.5000 Du        
   4779 ****       233.0000 390.5000 -116.2500 Du        
   4780 ****       233.0000 390.5000 -116.0000 Du        
   4781 ****       233.0000 390.5000 -115.7500 Du        
   4782 ****       233.0000 390.7500 -117.0000 Du        
   4783 ****       233.0000 390.7500 -116.7500 Du        
   4784 ****       233.0000 390.7500 -116.5000 Du        
   4785 ****       233.0000 390.7500 -116.2500 Du        
   4786 ****       233.0000 390.7500 -116.0000 Du        
   4787 ****       233.0000 391.0000 -116.7500 Du        
   4788 ****       233.0000 391.0000 -116.5000 Du        
   4789 ****       233.0000 391.0000 -116.2500 Du        
   4790 ****       233.2500 389.5000 -116.5000 Du        
   4791 ****       233.2500 389.5000 -116.2500 Du        
   4792 ****       233.2500 389.5000 -116.0000 Du        
   4793 ****       233.2500 389.5000 -115.7500 Du        
   4794 ****       233.2500 389.5000 -115.5000 Du        
   4795 ****       233.2500 389.5000 -115.2500 Du        
   4796 ****       233.2500 389.5000 -115.0000 Du        
   4797 ****       233.2500 389.5000 -114.7500 Du        
   4798 ****       233.2500 389.7500 -116.7500 Du        
   4799 ****       233.2500 389.7500 -116.5000 Du        
   4800 ****       233.2500 389.7500 -116.2500 Du        
   4801 ****       233.2500 389.7500 -116.0000 Du        
   4802 ****       233.2500 389.7500 -115.7500 Du        
   4803 ****       233.2500 389.7500 -115.5000 Du        
   4804 ****       233.2500 389.7500 -115.2500 Du        
   4805 ****       233.2500 389.7500 -115.0000 Du        
   4806 ****       233.2500 389.7500 -114.7500 Du        
   4807 ****       233.2500 390.0000 -117.2500 Du        
   4808 ****       233.2500 390.0000 -117.0000 Du        
   4809 ****       233.2500 390.0000 -116.7500 Du        
   4810 ****       233.2500 390.0000 -116.5000 Du        
   4811 ****       233.2500 390.0000 -116.2500 Du        
   4812 ****       233.2500 390.0000 -116.0000 Du        
   4813 ****       233.2500 390.0000 -115.7500 Du        
   4814 ****       233.2500 390.0000 -115.5000 Du        
   4815 ****       233.2500 390.0000 -115.2500 Du        
   4816 ****       233.2500 390.0000 -115.0000 Du        
   4817 ****       233.2500 390.2500 -117.2500 Du        
   4818 ****       233.2500 390.2500 -117.0000 Du        
   4819 ****       233.2500 390.2500 -116.7500 Du        
   4820 ****       233.2500 390.2500 -116.5000 Du        
   4821 ****       233.2500 390.2500 -116.2500 Du        
   4822 ****       233.2500 390.2500 -116.0000 Du        
   4823 ****       233.2500 390.2500 -115.7500 Du        
   4824 ****       233.2500 390.2500 -115.5000 Du        
   4825 ****       233.2500 390.2500 -115.2500 Du        
   4826 ****       233.2500 390.5000 -117.2500 Du        
   4827 ****       233.2500 390.5000 -117.0000 Du        
   4828 ****       233.2500 390.5000 -116.7500 Du        
   4829 ****       233.2500 390.5000 -116.5000 Du        
   4830 ****       233.2500 390.5000 -116.2500 Du        
   4831 ****       233.2500 390.5000 -116.0000 Du        
   4832 ****       233.2500 390.5000 -115.7500 Du        
   4833 ****       233.2500 390.5000 -115.5000 Du        
   4834 ****       233.2500 390.7500 -117.2500 Du        
   4835 ****       233.2500 390.7500 -117.0000 Du        
   4836 ****       233.2500 390.7500 -116.7500 Du        
   4837 ****       233.2500 390.7500 -116.5000 Du        
   4838 ****       233.2500 390.7500 -116.2500 Du        
   4839 ****       233.2500 390.7500 -116.0000 Du        
   4840 ****       233.2500 390.7500 -115.7500 Du        
   4841 ****       233.2500 391.0000 -116.7500 Du        
   4842 ****       233.2500 391.0000 -116.5000 Du        
   4843 ****       233.2500 391.0000 -116.2500 Du        
   4844 ****       233.2500 391.0000 -116.0000 Du        
   4845 ****       233.2500 391.2500 -116.5000 Du        
   4846 ****       233.2500 391.2500 -116.2500 Du        
   4847 ****       233.5000 389.5000 -116.5000 Du        
   4848 ****       233.5000 389.5000 -116.2500 Du        
   4849 ****       233.5000 389.5000 -116.0000 Du        
   4850 ****       233.5000 389.5000 -115.7500 Du        
   4851 ****       233.5000 389.5000 -115.5000 Du        
   4852 ****       233.5000 389.5000 -115.2500 Du        
   4853 ****       233.5000 389.5000 -115.0000 Du        
   4854 ****       233.5000 389.5000 -114.7500 Du        
   4855 ****       233.5000 389.7500 -117.0000 Du        
   4856 ****       233.5000 389.7500 -116.7500 Du        
   4857 ****       233.5000 389.7500 -116.5000 Du        
   4858 ****       233.5000 389.7500 -116.2500 Du        
   4859 ****       233.5000 389.7500 -116.0000 Du        
   4860 ****       233.5000 389.7500 -115.7500 Du        
   4861 ****       233.5000 389.7500 -115.5000 Du        
   4862 ****       233.5000 389.7500 -115.2500 Du        
   4863 ****       233.5000 389.7500 -115.0000 Du        
   4864 ****       233.5000 389.7500 -114.7500 Du        
   4865 ****       233.5000 389.7500 -114.5000 Du        
   4866 ****       233.5000 390.0000 -117.2500 Du        
   4867 ****       233.5000 390.0000 -117.0000 Du        
   4868 ****       233.5000 390.0000 -116.7500 Du        
   4869 ****       233.5000 390.0000 -116.5000 Du        
   4870 ****       233.5000 390.0000 -116.2500 Du        
   4871 ****       233.5000 390.0000 -116.0000 Du        
   4872 ****       233.5000 390.0000 -115.7500 Du        
   4873 ****       233.5000 390.0000 -115.5000 Du        
   4874 ****       233.5000 390.0000 -115.2500 Du        
   4875 ****       233.5000 390.0000 -115.0000 Du        
   4876 ****       233.5000 390.0000 -114.7500 Du        
   4877 ****       233.5000 390.2500 -117.5000 Du        
   4878 ****       233.5000 390.2500 -117.2500 Du        
   4879 ****       233.5000 390.2500 -117.0000 Du        
   4880 ****       233.5000 390.2500 -116.7500 Du        
   4881 ****       233.5000 390.2500 -116.5000 Du        
   4882 ****       233.5000 390.2500 -116.2500 Du        
   4883 ****       233.5000 390.2500 -116.0000 Du        
   4884 ****       233.5000 390.2500 -115.7500 Du        
   4885 ****       233.5000 390.2500 -115.5000 Du        
   4886 ****       233.5000 390.2500 -115.2500 Du        
   4887 ****       233.5000 390.2500 -115.0000 Du        
   4888 ****       233.5000 390.5000 -117.5000 Du        
   4889 ****       233.5000 390.5000 -117.2500 Du        
   4890 ****       233.5000 390.5000 -117.0000 Du        
   4891 ****       233.5000 390.5000 -116.7500 Du        
   4892 ****       233.5000 390.5000 -116.5000 Du        
   4893 ****       233.5000 390.5000 -116.2500 Du        
   4894 ****       233.5000 390.5000 -116.0000 Du        
   4895 ****       233.5000 390.5000 -115.7500 Du        
   4896 ****       233.5000 390.5000 -115.5000 Du        
   4897 ****       233.5000 390.5000 -115.2500 Du        
   4898 ****       233.5000 390.7500 -117.2500 Du        
   4899 ****       233.5000 390.7500 -117.0000 Du        
   4900 ****       233.5000 390.7500 -116.7500 Du        
   4901 ****       233.5000 390.7500 -116.5000 Du        
   4902 ****       233.5000 390.7500 -116.2500 Du        
   4903 ****       233.5000 390.7500 -116.0000 Du        
   4904 ****       233.5000 390.7500 -115.7500 Du        
   4905 ****       233.5000 390.7500 -115.5000 Du        
   4906 ****       233.5000 391.0000 -117.0000 Du        
   4907 ****       233.5000 391.0000 -116.7500 Du        
   4908 ****       233.5000 391.0000 -116.5000 Du        
   4909 ****       233.5000 391.0000 -116.2500 Du        
   4910 ****       233.5000 391.0000 -116.0000 Du        
   4911 ****       233.5000 391.0000 -115.7500 Du        
   4912 ****       233.5000 391.2500 -116.7500 Du        
   4913 ****       233.5000 391.2500 -116.5000 Du        
   4914 ****       233.5000 391.2500 -116.2500 Du        
   4915 ****       233.5000 391.2500 -116.0000 Du        
   4916 ****       233.5000 391.5000 -116.5000 Du        
   4917 ****       233.5000 391.5000 -116.2500 Du        
   4918 ****       233.7500 389.5000 -116.7500 Du        
   4919 ****       233.7500 389.5000 -116.5000 Du        
   4920 ****       233.7500 389.5000 -116.2500 Du        
   4921 ****       233.7500 389.5000 -116.0000 Du        
   4922 ****       233.7500 389.5000 -115.7500 Du        
   4923 ****       233.7500 389.5000 -115.5000 Du        
   4924 ****       233.7500 389.5000 -115.2500 Du        
   4925 ****       233.7500 389.5000 -115.0000 Du        
   4926 ****       233.7500 389.7500 -117.2500 Du        
   4927 ****       233.7500 389.7500 -117.0000 Du        
   4928 ****       233.7500 389.7500 -116.7500 Du        
   4929 ****       233.7500 389.7500 -116.5000 Du        
   4930 ****       233.7500 389.7500 -116.2500 Du        
   4931 ****       233.7500 389.7500 -116.0000 Du        
   4932 ****       233.7500 389.7500 -115.7500 Du        
   4933 ****       233.7500 389.7500 -115.5000 Du        
   4934 ****       233.7500 389.7500 -115.2500 Du        
   4935 ****       233.7500 389.7500 -115.0000 Du        
   4936 ****       233.7500 389.7500 -114.7500 Du        
   4937 ****       233.7500 389.7500 -114.5000 Du        
   4938 ****       233.7500 389.7500 -114.2500 Du        
   4939 ****       233.7500 390.0000 -117.5000 Du        
   4940 ****       233.7500 390.0000 -117.2500 Du        
   4941 ****       233.7500 390.0000 -117.0000 Du        
   4942 ****       233.7500 390.0000 -116.7500 Du        
   4943 ****       233.7500 390.0000 -116.5000 Du        
   4944 ****       233.7500 390.0000 -116.2500 Du        
   4945 ****       233.7500 390.0000 -116.0000 Du        
   4946 ****       233.7500 390.0000 -115.7500 Du        
   4947 ****       233.7500 390.0000 -115.5000 Du        
   4948 ****       233.7500 390.0000 -115.2500 Du        
   4949 ****       233.7500 390.0000 -115.0000 Du        
   4950 ****       233.7500 390.0000 -114.7500 Du        
   4951 ****       233.7500 390.0000 -114.5000 Du        
   4952 ****       233.7500 390.2500 -118.0000 Du        
   4953 ****       233.7500 390.2500 -117.7500 Du        
   4954 ****       233.7500 390.2500 -117.5000 Du        
   4955 ****       233.7500 390.2500 -117.2500 Du        
   4956 ****       233.7500 390.2500 -117.0000 Du        
   4957 ****       233.7500 390.2500 -116.7500 Du        
   4958 ****       233.7500 390.2500 -116.5000 Du        
   4959 ****       233.7500 390.2500 -116.2500 Du        
   4960 ****       233.7500 390.2500 -116.0000 Du        
   4961 ****       233.7500 390.2500 -115.7500 Du        
   4962 ****       233.7500 390.2500 -115.5000 Du        
   4963 ****       233.7500 390.2500 -115.2500 Du        
   4964 ****       233.7500 390.2500 -115.0000 Du        
   4965 ****       233.7500 390.2500 -114.7500 Du        
   4966 ****       233.7500 390.5000 -118.0000 Du        
   4967 ****       233.7500 390.5000 -117.7500 Du        
   4968 ****       233.7500 390.5000 -117.5000 Du        
   4969 ****       233.7500 390.5000 -117.2500 Du        
   4970 ****       233.7500 390.5000 -117.0000 Du        
   4971 ****       233.7500 390.5000 -116.7500 Du        
   4972 ****       233.7500 390.5000 -116.5000 Du        
   4973 ****       233.7500 390.5000 -116.2500 Du        
   4974 ****       233.7500 390.5000 -116.0000 Du        
   4975 ****       233.7500 390.5000 -115.7500 Du        
   4976 ****       233.7500 390.5000 -115.5000 Du        
   4977 ****       233.7500 390.5000 -115.2500 Du        
   4978 ****       233.7500 390.5000 -115.0000 Du        
   4979 ****       233.7500 390.7500 -117.5000 Du        
   4980 ****       233.7500 390.7500 -117.2500 Du        
   4981 ****       233.7500 390.7500 -117.0000 Du        
   4982 ****       233.7500 390.7500 -116.7500 Du        
   4983 ****       233.7500 390.7500 -116.5000 Du        
   4984 ****       233.7500 390.7500 -116.2500 Du        
   4985 ****       233.7500 390.7500 -116.0000 Du        
   4986 ****       233.7500 390.7500 -115.7500 Du        
   4987 ****       233.7500 390.7500 -115.5000 Du        
   4988 ****       233.7500 390.7500 -115.2500 Du        
   4989 ****       233.7500 391.0000 -117.2500 Du        
   4990 ****       233.7500 391.0000 -117.0000 Du        
   4991 ****       233.7500 391.0000 -116.7500 Du        
   4992 ****       233.7500 391.0000 -116.5000 Du        
   4993 ****       233.7500 391.0000 -116.2500 Du        
   4994 ****       233.7500 391.0000 -116.0000 Du        
   4995 ****       233.7500 391.0000 -115.7500 Du        
   4996 ****       233.7500 391.0000 -115.5000 Du        
   4997 ****       233.7500 391.2500 -117.0000 Du        
   4998 ****       233.7500 391.2500 -116.7500 Du        
   4999 ****       233.7500 391.2500 -116.5000 Du        
   5000 ****       233.7500 391.2500 -116.2500 Du        
   5001 ****       233.7500 391.2500 -116.0000 Du        
   5002 ****       233.7500 391.2500 -115.7500 Du        
   5003 ****       233.7500 391.5000 -116.7500 Du        
   5004 ****       233.7500 391.5000 -116.5000 Du        
   5005 ****       233.7500 391.5000 -116.2500 Du        
   5006 ****       233.7500 391.5000 -116.0000 Du        
   5007 ****       233.7500 391.7500 -116.5000 Du        
   5008 ****       233.7500 391.7500 -116.2500 Du        
   5009 ****       233.7500 392.0000 -116.5000 Du        
   5010 ****       233.7500 392.0000 -116.2500 Du        
   5011 ****       234.0000 389.5000 -117.0000 Du        
   5012 ****       234.0000 389.5000 -116.7500 Du        
   5013 ****       234.0000 389.5000 -116.5000 Du        
   5014 ****       234.0000 389.5000 -116.2500 Du        
   5015 ****       234.0000 389.5000 -116.0000 Du        
   5016 ****       234.0000 389.5000 -115.7500 Du        
   5017 ****       234.0000 389.5000 -115.5000 Du        
   5018 ****       234.0000 389.5000 -115.2500 Du        
   5019 ****       234.0000 389.7500 -117.5000 Du        
   5020 ****       234.0000 389.7500 -117.2500 Du        
   5021 ****       234.0000 389.7500 -117.0000 Du        
   5022 ****       234.0000 389.7500 -116.7500 Du        
   5023 ****       234.0000 389.7500 -116.5000 Du        
   5024 ****       234.0000 389.7500 -116.2500 Du        
   5025 ****       234.0000 389.7500 -116.0000 Du        
   5026 ****       234.0000 389.7500 -115.7500 Du        
   5027 ****       234.0000 389.7500 -115.5000 Du        
   5028 ****       234.0000 389.7500 -115.2500 Du        
   5029 ****       234.0000 389.7500 -115.0000 Du        
   5030 ****       234.0000 389.7500 -114.7500 Du        
   5031 ****       234.0000 389.7500 -114.5000 Du        
   5032 ****       234.0000 390.0000 -118.0000 Du        
   5033 ****       234.0000 390.0000 -117.7500 Du        
   5034 ****       234.0000 390.0000 -117.5000 Du        
   5035 ****       234.0000 390.0000 -117.2500 Du        
   5036 ****       234.0000 390.0000 -117.0000 Du        
   5037 ****       234.0000 390.0000 -116.7500 Du        
   5038 ****       234.0000 390.0000 -116.5000 Du        
   5039 ****       234.0000 390.0000 -116.2500 Du        
   5040 ****       234.0000 390.0000 -116.0000 Du        
   5041 ****       234.0000 390.0000 -115.7500 Du        
   5042 ****       234.0000 390.0000 -115.5000 Du        
   5043 ****       234.0000 390.0000 -115.2500 Du        
   5044 ****       234.0000 390.0000 -115.0000 Du        
   5045 ****       234.0000 390.0000 -114.7500 Du        
   5046 ****       234.0000 390.0000 -114.5000 Du        
   5047 ****       234.0000 390.0000 -114.2500 Du        
   5048 ****       234.0000 390.2500 -118.2500 Du        
   5049 ****       234.0000 390.2500 -118.0000 Du        
   5050 ****       234.0000 390.2500 -117.7500 Du        
   5051 ****       234.0000 390.2500 -117.5000 Du        
   5052 ****       234.0000 390.2500 -117.2500 Du        
   5053 ****       234.0000 390.2500 -117.0000 Du        
   5054 ****       234.0000 390.2500 -116.7500 Du        
   5055 ****       234.0000 390.2500 -116.5000 Du        
   5056 ****       234.0000 390.2500 -116.2500 Du        
   5057 ****       234.0000 390.2500 -116.0000 Du        
   5058 ****       234.0000 390.2500 -115.7500 Du        
   5059 ****       234.0000 390.2500 -115.5000 Du        
   5060 ****       234.0000 390.2500 -115.2500 Du        
   5061 ****       234.0000 390.2500 -115.0000 Du        
   5062 ****       234.0000 390.2500 -114.7500 Du        
   5063 ****       234.0000 390.2500 -114.5000 Du        
   5064 ****       234.0000 390.5000 -118.2500 Du        
   5065 ****       234.0000 390.5000 -118.0000 Du        
   5066 ****       234.0000 390.5000 -117.7500 Du        
   5067 ****       234.0000 390.5000 -117.5000 Du        
   5068 ****       234.0000 390.5000 -117.2500 Du        
   5069 ****       234.0000 390.5000 -117.0000 Du        
   5070 ****       234.0000 390.5000 -116.7500 Du        
   5071 ****       234.0000 390.5000 -116.5000 Du        
   5072 ****       234.0000 390.5000 -116.2500 Du        
   5073 ****       234.0000 390.5000 -116.0000 Du        
   5074 ****       234.0000 390.5000 -115.7500 Du        
   5075 ****       234.0000 390.5000 -115.5000 Du        
   5076 ****       234.0000 390.5000 -115.2500 Du        
   5077 ****       234.0000 390.5000 -115.0000 Du        
   5078 ****       234.0000 390.5000 -114.7500 Du        
   5079 ****       234.0000 390.7500 -117.7500 Du        
   5080 ****       234.0000 390.7500 -117.5000 Du        
   5081 ****       234.0000 390.7500 -117.2500 Du        
   5082 ****       234.0000 390.7500 -117.0000 Du        
   5083 ****       234.0000 390.7500 -116.7500 Du        
   5084 ****       234.0000 390.7500 -116.5000 Du        
   5085 ****       234.0000 390.7500 -116.2500 Du        
   5086 ****       234.0000 390.7500 -116.0000 Du        
   5087 ****       234.0000 390.7500 -115.7500 Du        
   5088 ****       234.0000 390.7500 -115.5000 Du        
   5089 ****       234.0000 390.7500 -115.2500 Du        
   5090 ****       234.0000 390.7500 -115.0000 Du        
   5091 ****       234.0000 390.7500 -114.7500 Du        
   5092 ****       234.0000 391.0000 -117.5000 Du        
   5093 ****       234.0000 391.0000 -117.2500 Du        
   5094 ****       234.0000 391.0000 -117.0000 Du        
   5095 ****       234.0000 391.0000 -116.7500 Du        
   5096 ****       234.0000 391.0000 -116.5000 Du        
   5097 ****       234.0000 391.0000 -116.2500 Du        
   5098 ****       234.0000 391.0000 -116.0000 Du        
   5099 ****       234.0000 391.0000 -115.7500 Du        
   5100 ****       234.0000 391.0000 -115.5000 Du        
   5101 ****       234.0000 391.0000 -115.2500 Du        
   5102 ****       234.0000 391.0000 -115.0000 Du        
   5103 ****       234.0000 391.2500 -117.2500 Du        
   5104 ****       234.0000 391.2500 -117.0000 Du        
   5105 ****       234.0000 391.2500 -116.7500 Du        
   5106 ****       234.0000 391.2500 -116.5000 Du        
   5107 ****       234.0000 391.2500 -116.2500 Du        
   5108 ****       234.0000 391.2500 -116.0000 Du        
   5109 ****       234.0000 391.2500 -115.7500 Du        
   5110 ****       234.0000 391.2500 -115.5000 Du        
   5111 ****       234.0000 391.2500 -115.2500 Du        
   5112 ****       234.0000 391.5000 -117.0000 Du        
   5113 ****       234.0000 391.5000 -116.7500 Du        
   5114 ****       234.0000 391.5000 -116.5000 Du        
   5115 ****       234.0000 391.5000 -116.2500 Du        
   5116 ****       234.0000 391.5000 -116.0000 Du        
   5117 ****       234.0000 391.5000 -115.7500 Du        
   5118 ****       234.0000 391.7500 -116.7500 Du        
   5119 ****       234.0000 391.7500 -116.5000 Du        
   5120 ****       234.0000 391.7500 -116.2500 Du        
   5121 ****       234.0000 391.7500 -116.0000 Du        
   5122 ****       234.0000 391.7500 -115.7500 Du        
   5123 ****       234.0000 392.0000 -116.7500 Du        
   5124 ****       234.0000 392.0000 -116.5000 Du        
   5125 ****       234.0000 392.0000 -116.2500 Du        
   5126 ****       234.0000 392.0000 -116.0000 Du        
   5127 ****       234.0000 392.2500 -116.5000 Du        
   5128 ****       234.0000 392.2500 -116.2500 Du        
   5129 ****       234.0000 392.2500 -116.0000 Du        
   5130 ****       234.0000 392.5000 -116.5000 Du        
   5131 ****       234.0000 392.5000 -116.2500 Du        
   5132 ****       234.0000 392.5000 -116.0000 Du        
   5133 ****       234.0000 392.7500 -116.5000 Du        
   5134 ****       234.0000 392.7500 -116.2500 Du        
   5135 ****       234.0000 392.7500 -116.0000 Du        
   5136 ****       234.0000 393.0000 -116.2500 Du        
   5137 ****       234.0000 393.0000 -116.0000 Du        
   5138 ****       234.0000 393.2500 -116.2500 Du        
   5139 ****       234.2500 389.5000 -117.2500 Du        
   5140 ****       234.2500 389.5000 -117.0000 Du        
   5141 ****       234.2500 389.5000 -116.7500 Du        
   5142 ****       234.2500 389.5000 -116.5000 Du        
   5143 ****       234.2500 389.5000 -116.2500 Du        
   5144 ****       234.2500 389.5000 -116.0000 Du        
   5145 ****       234.2500 389.5000 -115.7500 Du        
   5146 ****       234.2500 389.7500 -117.7500 Du        
   5147 ****       234.2500 389.7500 -117.5000 Du        
   5148 ****       234.2500 389.7500 -117.2500 Du        
   5149 ****       234.2500 389.7500 -117.0000 Du        
   5150 ****       234.2500 389.7500 -116.7500 Du        
   5151 ****       234.2500 389.7500 -116.5000 Du        
   5152 ****       234.2500 389.7500 -116.2500 Du        
   5153 ****       234.2500 389.7500 -116.0000 Du        
   5154 ****       234.2500 389.7500 -115.7500 Du        
   5155 ****       234.2500 389.7500 -115.5000 Du        
   5156 ****       234.2500 389.7500 -115.2500 Du        
   5157 ****       234.2500 389.7500 -115.0000 Du        
   5158 ****       234.2500 390.0000 -118.2500 Du        
   5159 ****       234.2500 390.0000 -118.0000 Du        
   5160 ****       234.2500 390.0000 -117.7500 Du        
   5161 ****       234.2500 390.0000 -117.5000 Du        
   5162 ****       234.2500 390.0000 -117.2500 Du        
   5163 ****       234.2500 390.0000 -117.0000 Du        
   5164 ****       234.2500 390.0000 -116.7500 Du        
   5165 ****       234.2500 390.0000 -116.5000 Du        
   5166 ****       234.2500 390.0000 -116.2500 Du        
   5167 ****       234.2500 390.0000 -116.0000 Du        
   5168 ****       234.2500 390.0000 -115.7500 Du        
   5169 ****       234.2500 390.0000 -115.5000 Du        
   5170 ****       234.2500 390.0000 -115.2500 Du        
   5171 ****       234.2500 390.0000 -115.0000 Du        
   5172 ****       234.2500 390.0000 -114.7500 Du        
   5173 ****       234.2500 390.0000 -114.5000 Du        
   5174 ****       234.2500 390.2500 -118.7500 Du        
   5175 ****       234.2500 390.2500 -118.5000 Du        
   5176 ****       234.2500 390.2500 -118.2500 Du        
   5177 ****       234.2500 390.2500 -118.0000 Du        
   5178 ****       234.2500 390.2500 -117.7500 Du        
   5179 ****       234.2500 390.2500 -117.5000 Du        
   5180 ****       234.2500 390.2500 -117.2500 Du        
   5181 ****       234.2500 390.2500 -117.0000 Du        
   5182 ****       234.2500 390.2500 -116.7500 Du        
   5183 ****       234.2500 390.2500 -116.5000 Du        
   5184 ****       234.2500 390.2500 -116.2500 Du        
   5185 ****       234.2500 390.2500 -116.0000 Du        
   5186 ****       234.2500 390.2500 -115.7500 Du        
   5187 ****       234.2500 390.2500 -115.5000 Du        
   5188 ****       234.2500 390.2500 -115.2500 Du        
   5189 ****       234.2500 390.2500 -115.0000 Du        
   5190 ****       234.2500 390.2500 -114.7500 Du        
   5191 ****       234.2500 390.2500 -114.5000 Du        
   5192 ****       234.2500 390.2500 -114.2500 Du        
   5193 ****       234.2500 390.5000 -118.7500 Du        
   5194 ****       234.2500 390.5000 -118.5000 Du        
   5195 ****       234.2500 390.5000 -118.2500 Du        
   5196 ****       234.2500 390.5000 -118.0000 Du        
   5197 ****       234.2500 390.5000 -117.7500 Du        
   5198 ****       234.2500 390.5000 -117.5000 Du        
   5199 ****       234.2500 390.5000 -117.2500 Du        
   5200 ****       234.2500 390.5000 -117.0000 Du        
   5201 ****       234.2500 390.5000 -116.7500 Du        
   5202 ****       234.2500 390.5000 -116.5000 Du        
   5203 ****       234.2500 390.5000 -116.2500 Du        
   5204 ****       234.2500 390.5000 -116.0000 Du        
   5205 ****       234.2500 390.5000 -115.7500 Du        
   5206 ****       234.2500 390.5000 -115.5000 Du        
   5207 ****       234.2500 390.5000 -115.2500 Du        
   5208 ****       234.2500 390.5000 -115.0000 Du        
   5209 ****       234.2500 390.5000 -114.7500 Du        
   5210 ****       234.2500 390.5000 -114.5000 Du        
   5211 ****       234.2500 390.5000 -114.2500 Du        
   5212 ****       234.2500 390.7500 -118.2500 Du        
   5213 ****       234.2500 390.7500 -118.0000 Du        
   5214 ****       234.2500 390.7500 -117.7500 Du        
   5215 ****       234.2500 390.7500 -117.5000 Du        
   5216 ****       234.2500 390.7500 -117.2500 Du        
   5217 ****       234.2500 390.7500 -117.0000 Du        
   5218 ****       234.2500 390.7500 -116.7500 Du        
   5219 ****       234.2500 390.7500 -116.5000 Du        
   5220 ****       234.2500 390.7500 -116.2500 Du        
   5221 ****       234.2500 390.7500 -116.0000 Du        
   5222 ****       234.2500 390.7500 -115.7500 Du        
   5223 ****       234.2500 390.7500 -115.5000 Du        
   5224 ****       234.2500 390.7500 -115.2500 Du        
   5225 ****       234.2500 390.7500 -115.0000 Du        
   5226 ****       234.2500 390.7500 -114.7500 Du        
   5227 ****       234.2500 390.7500 -114.5000 Du        
   5228 ****       234.2500 391.0000 -117.7500 Du        
   5229 ****       234.2500 391.0000 -117.5000 Du        
   5230 ****       234.2500 391.0000 -117.2500 Du        
   5231 ****       234.2500 391.0000 -117.0000 Du        
   5232 ****       234.2500 391.0000 -116.7500 Du        
   5233 ****       234.2500 391.0000 -116.5000 Du        
   5234 ****       234.2500 391.0000 -116.2500 Du        
   5235 ****       234.2500 391.0000 -116.0000 Du        
   5236 ****       234.2500 391.0000 -115.7500 Du        
   5237 ****       234.2500 391.0000 -115.5000 Du        
   5238 ****       234.2500 391.0000 -115.2500 Du        
   5239 ****       234.2500 391.0000 -115.0000 Du        
   5240 ****       234.2500 391.0000 -114.7500 Du        
   5241 ****       234.2500 391.2500 -117.5000 Du        
   5242 ****       234.2500 391.2500 -117.2500 Du        
   5243 ****       234.2500 391.2500 -117.0000 Du        
   5244 ****       234.2500 391.2500 -116.7500 Du        
   5245 ****       234.2500 391.2500 -116.5000 Du        
   5246 ****       234.2500 391.2500 -116.2500 Du        
   5247 ****       234.2500 391.2500 -116.0000 Du        
   5248 ****       234.2500 391.2500 -115.7500 Du        
   5249 ****       234.2500 391.2500 -115.5000 Du        
   5250 ****       234.2500 391.2500 -115.2500 Du        
   5251 ****       234.2500 391.2500 -115.0000 Du        
   5252 ****       234.2500 391.5000 -117.2500 Du        
   5253 ****       234.2500 391.5000 -117.0000 Du        
   5254 ****       234.2500 391.5000 -116.7500 Du        
   5255 ****       234.2500 391.5000 -116.5000 Du        
   5256 ****       234.2500 391.5000 -116.2500 Du        
   5257 ****       234.2500 391.5000 -116.0000 Du        
   5258 ****       234.2500 391.5000 -115.7500 Du        
   5259 ****       234.2500 391.5000 -115.5000 Du        
   5260 ****       234.2500 391.5000 -115.2500 Du        
   5261 ****       234.2500 391.7500 -117.0000 Du        
   5262 ****       234.2500 391.7500 -116.7500 Du        
   5263 ****       234.2500 391.7500 -116.5000 Du        
   5264 ****       234.2500 391.7500 -116.2500 Du        
   5265 ****       234.2500 391.7500 -116.0000 Du        
   5266 ****       234.2500 391.7500 -115.7500 Du        
   5267 ****       234.2500 391.7500 -115.5000 Du        
   5268 ****       234.2500 391.7500 -115.2500 Du        
   5269 ****       234.2500 392.0000 -117.0000 Du        
   5270 ****       234.2500 392.0000 -116.7500 Du        
   5271 ****       234.2500 392.0000 -116.5000 Du        
   5272 ****       234.2500 392.0000 -116.2500 Du        
   5273 ****       234.2500 392.0000 -116.0000 Du        
   5274 ****       234.2500 392.0000 -115.7500 Du        
   5275 ****       234.2500 392.0000 -115.5000 Du        
   5276 ****       234.2500 392.2500 -116.7500 Du        
   5277 ****       234.2500 392.2500 -116.5000 Du        
   5278 ****       234.2500 392.2500 -116.2500 Du        
   5279 ****       234.2500 392.2500 -116.0000 Du        
   5280 ****       234.2500 392.2500 -115.7500 Du        
   5281 ****       234.2500 392.2500 -115.5000 Du        
   5282 ****       234.2500 392.5000 -116.7500 Du        
   5283 ****       234.2500 392.5000 -116.5000 Du        
   5284 ****       234.2500 392.5000 -116.2500 Du        
   5285 ****       234.2500 392.5000 -116.0000 Du        
   5286 ****       234.2500 392.5000 -115.7500 Du        
   5287 ****       234.2500 392.7500 -116.7500 Du        
   5288 ****       234.2500 392.7500 -116.5000 Du        
   5289 ****       234.2500 392.7500 -116.2500 Du        
   5290 ****       234.2500 392.7500 -116.0000 Du        
   5291 ****       234.2500 392.7500 -115.7500 Du        
   5292 ****       234.2500 393.0000 -116.5000 Du        
   5293 ****       234.2500 393.0000 -116.2500 Du        
   5294 ****       234.2500 393.0000 -116.0000 Du        
   5295 ****       234.2500 393.0000 -115.7500 Du        
   5296 ****       234.2500 393.2500 -116.5000 Du        
   5297 ****       234.2500 393.2500 -116.2500 Du        
   5298 ****       234.2500 393.2500 -116.0000 Du        
   5299 ****       234.2500 393.2500 -115.7500 Du        
   5300 ****       234.2500 393.5000 -116.2500 Du        
   5301 ****       234.2500 393.5000 -116.0000 Du        
   5302 ****       234.5000 389.5000 -117.5000 Du        
   5303 ****       234.5000 389.5000 -117.2500 Du        
   5304 ****       234.5000 389.5000 -117.0000 Du        
   5305 ****       234.5000 389.5000 -116.7500 Du        
   5306 ****       234.5000 389.5000 -116.5000 Du        
   5307 ****       234.5000 389.5000 -116.2500 Du        
   5308 ****       234.5000 389.7500 -118.2500 Du        
   5309 ****       234.5000 389.7500 -118.0000 Du        
   5310 ****       234.5000 389.7500 -117.7500 Du        
   5311 ****       234.5000 389.7500 -117.5000 Du        
   5312 ****       234.5000 389.7500 -117.2500 Du        
   5313 ****       234.5000 389.7500 -117.0000 Du        
   5314 ****       234.5000 389.7500 -116.7500 Du        
   5315 ****       234.5000 389.7500 -116.5000 Du        
   5316 ****       234.5000 389.7500 -116.2500 Du        
   5317 ****       234.5000 389.7500 -116.0000 Du        
   5318 ****       234.5000 389.7500 -115.7500 Du        
   5319 ****       234.5000 389.7500 -115.5000 Du        
   5320 ****       234.5000 389.7500 -115.2500 Du        
   5321 ****       234.5000 390.0000 -118.7500 Du        
   5322 ****       234.5000 390.0000 -118.5000 Du        
   5323 ****       234.5000 390.0000 -118.2500 Du        
   5324 ****       234.5000 390.0000 -118.0000 Du        
   5325 ****       234.5000 390.0000 -117.7500 Du        
   5326 ****       234.5000 390.0000 -117.5000 Du        
   5327 ****       234.5000 390.0000 -117.2500 Du        
   5328 ****       234.5000 390.0000 -117.0000 Du        
   5329 ****       234.5000 390.0000 -116.7500 Du        
   5330 ****       234.5000 390.0000 -116.5000 Du        
   5331 ****       234.5000 390.0000 -116.2500 Du        
   5332 ****       234.5000 390.0000 -116.0000 Du        
   5333 ****       234.5000 390.0000 -115.7500 Du        
   5334 ****       234.5000 390.0000 -115.5000 Du        
   5335 ****       234.5000 390.0000 -115.2500 Du        
   5336 ****       234.5000 390.0000 -115.0000 Du        
   5337 ****       234.5000 390.0000 -114.7500 Du        
   5338 ****       234.5000 390.2500 -119.0000 Du        
   5339 ****       234.5000 390.2500 -118.7500 Du        
   5340 ****       234.5000 390.2500 -118.5000 Du        
   5341 ****       234.5000 390.2500 -118.2500 Du        
   5342 ****       234.5000 390.2500 -118.0000 Du        
   5343 ****       234.5000 390.2500 -117.7500 Du        
   5344 ****       234.5000 390.2500 -117.5000 Du        
   5345 ****       234.5000 390.2500 -117.2500 Du        
   5346 ****       234.5000 390.2500 -117.0000 Du        
   5347 ****       234.5000 390.2500 -116.7500 Du        
   5348 ****       234.5000 390.2500 -116.5000 Du        
   5349 ****       234.5000 390.2500 -116.2500 Du        
   5350 ****       234.5000 390.2500 -116.0000 Du        
   5351 ****       234.5000 390.2500 -115.7500 Du        
   5352 ****       234.5000 390.2500 -115.5000 Du        
   5353 ****       234.5000 390.2500 -115.2500 Du        
   5354 ****       234.5000 390.2500 -115.0000 Du        
   5355 ****       234.5000 390.2500 -114.7500 Du        
   5356 ****       234.5000 390.2500 -114.5000 Du        
   5357 ****       234.5000 390.5000 -119.0000 Du        
   5358 ****       234.5000 390.5000 -118.7500 Du        
   5359 ****       234.5000 390.5000 -118.5000 Du        
   5360 ****       234.5000 390.5000 -118.2500 Du        
   5361 ****       234.5000 390.5000 -118.0000 Du        
   5362 ****       234.5000 390.5000 -117.7500 Du        
   5363 ****       234.5000 390.5000 -117.5000 Du        
   5364 ****       234.5000 390.5000 -117.2500 Du        
   5365 ****       234.5000 390.5000 -117.0000 Du        
   5366 ****       234.5000 390.5000 -116.7500 Du        
   5367 ****       234.5000 390.5000 -116.5000 Du        
   5368 ****       234.5000 390.5000 -116.2500 Du        
   5369 ****       234.5000 390.5000 -116.0000 Du        
   5370 ****       234.5000 390.5000 -115.7500 Du        
   5371 ****       234.5000 390.5000 -115.5000 Du        
   5372 ****       234.5000 390.5000 -115.2500 Du        
   5373 ****       234.5000 390.5000 -115.0000 Du        
   5374 ****       234.5000 390.5000 -114.7500 Du        
   5375 ****       234.5000 390.5000 -114.5000 Du        
   5376 ****       234.5000 390.7500 -118.7500 Du        
   5377 ****       234.5000 390.7500 -118.5000 Du        
   5378 ****       234.5000 390.7500 -118.2500 Du        
   5379 ****       234.5000 390.7500 -118.0000 Du        
   5380 ****       234.5000 390.7500 -117.7500 Du        
   5381 ****       234.5000 390.7500 -117.5000 Du        
   5382 ****       234.5000 390.7500 -117.2500 Du        
   5383 ****       234.5000 390.7500 -117.0000 Du        
   5384 ****       234.5000 390.7500 -116.7500 Du        
   5385 ****       234.5000 390.7500 -116.5000 Du        
   5386 ****       234.5000 390.7500 -116.2500 Du        
   5387 ****       234.5000 390.7500 -116.0000 Du        
   5388 ****       234.5000 390.7500 -115.7500 Du        
   5389 ****       234.5000 390.7500 -115.5000 Du        
   5390 ****       234.5000 390.7500 -115.2500 Du        
   5391 ****       234.5000 390.7500 -115.0000 Du        
   5392 ****       234.5000 390.7500 -114.7500 Du        
   5393 ****       234.5000 390.7500 -114.5000 Du        
   5394 ****       234.5000 391.0000 -118.2500 Du        
   5395 ****       234.5000 391.0000 -118.0000 Du        
   5396 ****       234.5000 391.0000 -117.7500 Du        
   5397 ****       234.5000 391.0000 -117.5000 Du        
   5398 ****       234.5000 391.0000 -117.2500 Du        
   5399 ****       234.5000 391.0000 -117.0000 Du        
   5400 ****       234.5000 391.0000 -116.7500 Du        
   5401 ****       234.5000 391.0000 -116.5000 Du        
   5402 ****       234.5000 391.0000 -116.2500 Du        
   5403 ****       234.5000 391.0000 -116.0000 Du        
   5404 ****       234.5000 391.0000 -115.7500 Du        
   5405 ****       234.5000 391.0000 -115.5000 Du        
   5406 ****       234.5000 391.0000 -115.2500 Du        
   5407 ****       234.5000 391.0000 -115.0000 Du        
   5408 ****       234.5000 391.0000 -114.7500 Du        
   5409 ****       234.5000 391.0000 -114.5000 Du        
   5410 ****       234.5000 391.2500 -117.7500 Du        
   5411 ****       234.5000 391.2500 -117.5000 Du        
   5412 ****       234.5000 391.2500 -117.2500 Du        
   5413 ****       234.5000 391.2500 -117.0000 Du        
   5414 ****       234.5000 391.2500 -116.7500 Du        
   5415 ****       234.5000 391.2500 -116.5000 Du        
   5416 ****       234.5000 391.2500 -116.2500 Du        
   5417 ****       234.5000 391.2500 -116.0000 Du        
   5418 ****       234.5000 391.2500 -115.7500 Du        
   5419 ****       234.5000 391.2500 -115.5000 Du        
   5420 ****       234.5000 391.2500 -115.2500 Du        
   5421 ****       234.5000 391.2500 -115.0000 Du        
   5422 ****       234.5000 391.2500 -114.7500 Du        
   5423 ****       234.5000 391.5000 -117.5000 Du        
   5424 ****       234.5000 391.5000 -117.2500 Du        
   5425 ****       234.5000 391.5000 -117.0000 Du        
   5426 ****       234.5000 391.5000 -116.7500 Du        
   5427 ****       234.5000 391.5000 -116.5000 Du        
   5428 ****       234.5000 391.5000 -116.2500 Du        
   5429 ****       234.5000 391.5000 -116.0000 Du        
   5430 ****       234.5000 391.5000 -115.7500 Du        
   5431 ****       234.5000 391.5000 -115.5000 Du        
   5432 ****       234.5000 391.5000 -115.2500 Du        
   5433 ****       234.5000 391.5000 -115.0000 Du        
   5434 ****       234.5000 391.5000 -114.7500 Du        
   5435 ****       234.5000 391.7500 -117.2500 Du        
   5436 ****       234.5000 391.7500 -117.0000 Du        
   5437 ****       234.5000 391.7500 -116.7500 Du        
   5438 ****       234.5000 391.7500 -116.5000 Du        
   5439 ****       234.5000 391.7500 -116.2500 Du        
   5440 ****       234.5000 391.7500 -116.0000 Du        
   5441 ****       234.5000 391.7500 -115.7500 Du        
   5442 ****       234.5000 391.7500 -115.5000 Du        
   5443 ****       234.5000 391.7500 -115.2500 Du        
   5444 ****       234.5000 391.7500 -115.0000 Du        
   5445 ****       234.5000 392.0000 -117.2500 Du        
   5446 ****       234.5000 392.0000 -117.0000 Du        
   5447 ****       234.5000 392.0000 -116.7500 Du        
   5448 ****       234.5000 392.0000 -116.5000 Du        
   5449 ****       234.5000 392.0000 -116.2500 Du        
   5450 ****       234.5000 392.0000 -116.0000 Du        
   5451 ****       234.5000 392.0000 -115.7500 Du        
   5452 ****       234.5000 392.0000 -115.5000 Du        
   5453 ****       234.5000 392.0000 -115.2500 Du        
   5454 ****       234.5000 392.0000 -115.0000 Du        
   5455 ****       234.5000 392.2500 -117.0000 Du        
   5456 ****       234.5000 392.2500 -116.7500 Du        
   5457 ****       234.5000 392.2500 -116.5000 Du        
   5458 ****       234.5000 392.2500 -116.2500 Du        
   5459 ****       234.5000 392.2500 -116.0000 Du        
   5460 ****       234.5000 392.2500 -115.7500 Du        
   5461 ****       234.5000 392.2500 -115.5000 Du        
   5462 ****       234.5000 392.2500 -115.2500 Du        
   5463 ****       234.5000 392.5000 -117.0000 Du        
   5464 ****       234.5000 392.5000 -116.7500 Du        
   5465 ****       234.5000 392.5000 -116.5000 Du        
   5466 ****       234.5000 392.5000 -116.2500 Du        
   5467 ****       234.5000 392.5000 -116.0000 Du        
   5468 ****       234.5000 392.5000 -115.7500 Du        
   5469 ****       234.5000 392.5000 -115.5000 Du        
   5470 ****       234.5000 392.5000 -115.2500 Du        
   5471 ****       234.5000 392.7500 -117.0000 Du        
   5472 ****       234.5000 392.7500 -116.7500 Du        
   5473 ****       234.5000 392.7500 -116.5000 Du        
   5474 ****       234.5000 392.7500 -116.2500 Du        
   5475 ****       234.5000 392.7500 -116.0000 Du        
   5476 ****       234.5000 392.7500 -115.7500 Du        
   5477 ****       234.5000 392.7500 -115.5000 Du        
   5478 ****       234.5000 392.7500 -115.2500 Du        
   5479 ****       234.5000 393.0000 -116.7500 Du        
   5480 ****       234.5000 393.0000 -116.5000 Du        
   5481 ****       234.5000 393.0000 -116.2500 Du        
   5482 ****       234.5000 393.0000 -116.0000 Du        
   5483 ****       234.5000 393.0000 -115.7500 Du        
   5484 ****       234.5000 393.0000 -115.5000 Du        
   5485 ****       234.5000 393.0000 -115.2500 Du        
   5486 ****       234.5000 393.2500 -116.7500 Du        
   5487 ****       234.5000 393.2500 -116.5000 Du        
   5488 ****       234.5000 393.2500 -116.2500 Du        
   5489 ****       234.5000 393.2500 -116.0000 Du        
   5490 ****       234.5000 393.2500 -115.7500 Du        
   5491 ****       234.5000 393.2500 -115.5000 Du        
   5492 ****       234.5000 393.5000 -116.5000 Du        
   5493 ****       234.5000 393.5000 -116.2500 Du        
   5494 ****       234.5000 393.5000 -116.0000 Du        
   5495 ****       234.5000 393.5000 -115.7500 Du        
   5496 ****       234.5000 393.5000 -115.5000 Du        
   5497 ****       234.5000 393.7500 -116.0000 Du        
   5498 ****       234.5000 393.7500 -115.7500 Du        
   5499 ****       234.7500 389.5000 -118.0000 Du        
   5500 ****       234.7500 389.5000 -117.7500 Du        
   5501 ****       234.7500 389.5000 -117.5000 Du        
   5502 ****       234.7500 389.5000 -117.2500 Du        
   5503 ****       234.7500 389.5000 -117.0000 Du        
   5504 ****       234.7500 389.5000 -116.7500 Du        
   5505 ****       234.7500 389.7500 -118.5000 Du        
   5506 ****       234.7500 389.7500 -118.2500 Du        
   5507 ****       234.7500 389.7500 -118.0000 Du        
   5508 ****       234.7500 389.7500 -117.7500 Du        
   5509 ****       234.7500 389.7500 -117.5000 Du        
   5510 ****       234.7500 389.7500 -117.2500 Du        
   5511 ****       234.7500 389.7500 -117.0000 Du        
   5512 ****       234.7500 389.7500 -116.7500 Du        
   5513 ****       234.7500 389.7500 -116.5000 Du        
   5514 ****       234.7500 389.7500 -116.2500 Du        
   5515 ****       234.7500 389.7500 -116.0000 Du        
   5516 ****       234.7500 389.7500 -115.7500 Du        
   5517 ****       234.7500 390.0000 -119.0000 Du        
   5518 ****       234.7500 390.0000 -118.7500 Du        
   5519 ****       234.7500 390.0000 -118.5000 Du        
   5520 ****       234.7500 390.0000 -118.2500 Du        
   5521 ****       234.7500 390.0000 -118.0000 Du        
   5522 ****       234.7500 390.0000 -117.7500 Du        
   5523 ****       234.7500 390.0000 -117.5000 Du        
   5524 ****       234.7500 390.0000 -117.2500 Du        
   5525 ****       234.7500 390.0000 -117.0000 Du        
   5526 ****       234.7500 390.0000 -116.7500 Du        
   5527 ****       234.7500 390.0000 -116.5000 Du        
   5528 ****       234.7500 390.0000 -116.2500 Du        
   5529 ****       234.7500 390.0000 -116.0000 Du        
   5530 ****       234.7500 390.0000 -115.7500 Du        
   5531 ****       234.7500 390.0000 -115.5000 Du        
   5532 ****       234.7500 390.0000 -115.2500 Du        
   5533 ****       234.7500 390.2500 -119.2500 Du        
   5534 ****       234.7500 390.2500 -119.0000 Du        
   5535 ****       234.7500 390.2500 -118.7500 Du        
   5536 ****       234.7500 390.2500 -118.5000 Du        
   5537 ****       234.7500 390.2500 -118.2500 Du        
   5538 ****       234.7500 390.2500 -118.0000 Du        
   5539 ****       234.7500 390.2500 -117.7500 Du        
   5540 ****       234.7500 390.2500 -117.5000 Du        
   5541 ****       234.7500 390.2500 -117.2500 Du        
   5542 ****       234.7500 390.2500 -117.0000 Du        
   5543 ****       234.7500 390.2500 -116.7500 Du        
   5544 ****       234.7500 390.2500 -116.5000 Du        
   5545 ****       234.7500 390.2500 -116.2500 Du        
   5546 ****       234.7500 390.2500 -116.0000 Du        
   5547 ****       234.7500 390.2500 -115.7500 Du        
   5548 ****       234.7500 390.2500 -115.5000 Du        
   5549 ****       234.7500 390.2500 -115.2500 Du        
   5550 ****       234.7500 390.2500 -115.0000 Du        
   5551 ****       234.7500 390.2500 -114.7500 Du        
   5552 ****       234.7500 390.5000 -119.2500 Du        
   5553 ****       234.7500 390.5000 -119.0000 Du        
   5554 ****       234.7500 390.5000 -118.7500 Du        
   5555 ****       234.7500 390.5000 -118.5000 Du        
   5556 ****       234.7500 390.5000 -118.2500 Du        
   5557 ****       234.7500 390.5000 -118.0000 Du        
   5558 ****       234.7500 390.5000 -117.7500 Du        
   5559 ****       234.7500 390.5000 -117.5000 Du        
   5560 ****       234.7500 390.5000 -117.2500 Du        
   5561 ****       234.7500 390.5000 -117.0000 Du        
   5562 ****       234.7500 390.5000 -116.7500 Du        
   5563 ****       234.7500 390.5000 -116.5000 Du        
   5564 ****       234.7500 390.5000 -116.2500 Du        
   5565 ****       234.7500 390.5000 -116.0000 Du        
   5566 ****       234.7500 390.5000 -115.7500 Du        
   5567 ****       234.7500 390.5000 -115.5000 Du        
   5568 ****       234.7500 390.5000 -115.2500 Du        
   5569 ****       234.7500 390.5000 -115.0000 Du        
   5570 ****       234.7500 390.5000 -114.7500 Du        
   5571 ****       234.7500 390.7500 -119.0000 Du        
   5572 ****       234.7500 390.7500 -118.7500 Du        
   5573 ****       234.7500 390.7500 -118.5000 Du        
   5574 ****       234.7500 390.7500 -118.2500 Du        
   5575 ****       234.7500 390.7500 -118.0000 Du        
   5576 ****       234.7500 390.7500 -117.7500 Du        
   5577 ****       234.7500 390.7500 -117.5000 Du        
   5578 ****       234.7500 390.7500 -117.2500 Du        
   5579 ****       234.7500 390.7500 -117.0000 Du        
   5580 ****       234.7500 390.7500 -116.7500 Du        
   5581 ****       234.7500 390.7500 -116.5000 Du        
   5582 ****       234.7500 390.7500 -116.2500 Du        
   5583 ****       234.7500 390.7500 -116.0000 Du        
   5584 ****       234.7500 390.7500 -115.7500 Du        
   5585 ****       234.7500 390.7500 -115.5000 Du        
   5586 ****       234.7500 390.7500 -115.2500 Du        
   5587 ****       234.7500 390.7500 -115.0000 Du        
   5588 ****       234.7500 390.7500 -114.7500 Du        
   5589 ****       234.7500 390.7500 -114.5000 Du        
   5590 ****       234.7500 391.0000 -118.5000 Du        
   5591 ****       234.7500 391.0000 -118.2500 Du        
   5592 ****       234.7500 391.0000 -118.0000 Du        
   5593 ****       234.7500 391.0000 -117.7500 Du        
   5594 ****       234.7500 391.0000 -117.5000 Du        
   5595 ****       234.7500 391.0000 -117.2500 Du        
   5596 ****       234.7500 391.0000 -117.0000 Du        
   5597 ****       234.7500 391.0000 -116.7500 Du        
   5598 ****       234.7500 391.0000 -116.5000 Du        
   5599 ****       234.7500 391.0000 -116.2500 Du        
   5600 ****       234.7500 391.0000 -116.0000 Du        
   5601 ****       234.7500 391.0000 -115.7500 Du        
   5602 ****       234.7500 391.0000 -115.5000 Du        
   5603 ****       234.7500 391.0000 -115.2500 Du        
   5604 ****       234.7500 391.0000 -115.0000 Du        
   5605 ****       234.7500 391.0000 -114.7500 Du        
   5606 ****       234.7500 391.0000 -114.5000 Du        
   5607 ****       234.7500 391.2500 -118.2500 Du        
   5608 ****       234.7500 391.2500 -118.0000 Du        
   5609 ****       234.7500 391.2500 -117.7500 Du        
   5610 ****       234.7500 391.2500 -117.5000 Du        
   5611 ****       234.7500 391.2500 -117.2500 Du        
   5612 ****       234.7500 391.2500 -117.0000 Du        
   5613 ****       234.7500 391.2500 -116.7500 Du        
   5614 ****       234.7500 391.2500 -116.5000 Du        
   5615 ****       234.7500 391.2500 -116.2500 Du        
   5616 ****       234.7500 391.2500 -116.0000 Du        
   5617 ****       234.7500 391.2500 -115.7500 Du        
   5618 ****       234.7500 391.2500 -115.5000 Du        
   5619 ****       234.7500 391.2500 -115.2500 Du        
   5620 ****       234.7500 391.2500 -115.0000 Du        
   5621 ****       234.7500 391.2500 -114.7500 Du        
   5622 ****       234.7500 391.5000 -117.7500 Du        
   5623 ****       234.7500 391.5000 -117.5000 Du        
   5624 ****       234.7500 391.5000 -117.2500 Du        
   5625 ****       234.7500 391.5000 -117.0000 Du        
   5626 ****       234.7500 391.5000 -116.7500 Du        
   5627 ****       234.7500 391.5000 -116.5000 Du        
   5628 ****       234.7500 391.5000 -116.2500 Du        
   5629 ****       234.7500 391.5000 -116.0000 Du        
   5630 ****       234.7500 391.5000 -115.7500 Du        
   5631 ****       234.7500 391.5000 -115.5000 Du        
   5632 ****       234.7500 391.5000 -115.2500 Du        
   5633 ****       234.7500 391.5000 -115.0000 Du        
   5634 ****       234.7500 391.5000 -114.7500 Du        
   5635 ****       234.7500 391.7500 -117.5000 Du        
   5636 ****       234.7500 391.7500 -117.2500 Du        
   5637 ****       234.7500 391.7500 -117.0000 Du        
   5638 ****       234.7500 391.7500 -116.7500 Du        
   5639 ****       234.7500 391.7500 -116.5000 Du        
   5640 ****       234.7500 391.7500 -116.2500 Du        
   5641 ****       234.7500 391.7500 -116.0000 Du        
   5642 ****       234.7500 391.7500 -115.7500 Du        
   5643 ****       234.7500 391.7500 -115.5000 Du        
   5644 ****       234.7500 391.7500 -115.2500 Du        
   5645 ****       234.7500 391.7500 -115.0000 Du        
   5646 ****       234.7500 392.0000 -117.5000 Du        
   5647 ****       234.7500 392.0000 -117.2500 Du        
   5648 ****       234.7500 392.0000 -117.0000 Du        
   5649 ****       234.7500 392.0000 -116.7500 Du        
   5650 ****       234.7500 392.0000 -116.5000 Du        
   5651 ****       234.7500 392.0000 -116.2500 Du        
   5652 ****       234.7500 392.0000 -116.0000 Du        
   5653 ****       234.7500 392.0000 -115.7500 Du        
   5654 ****       234.7500 392.0000 -115.5000 Du        
   5655 ****       234.7500 392.0000 -115.2500 Du        
   5656 ****       234.7500 392.0000 -115.0000 Du        
   5657 ****       234.7500 392.2500 -117.2500 Du        
   5658 ****       234.7500 392.2500 -117.0000 Du        
   5659 ****       234.7500 392.2500 -116.7500 Du        
   5660 ****       234.7500 392.2500 -116.5000 Du        
   5661 ****       234.7500 392.2500 -116.2500 Du        
   5662 ****       234.7500 392.2500 -116.0000 Du        
   5663 ****       234.7500 392.2500 -115.7500 Du        
   5664 ****       234.7500 392.2500 -115.5000 Du        
   5665 ****       234.7500 392.2500 -115.2500 Du        
   5666 ****       234.7500 392.2500 -115.0000 Du        
   5667 ****       234.7500 392.5000 -117.2500 Du        
   5668 ****       234.7500 392.5000 -117.0000 Du        
   5669 ****       234.7500 392.5000 -116.7500 Du        
   5670 ****       234.7500 392.5000 -116.5000 Du        
   5671 ****       234.7500 392.5000 -116.2500 Du        
   5672 ****       234.7500 392.5000 -116.0000 Du        
   5673 ****       234.7500 392.5000 -115.7500 Du        
   5674 ****       234.7500 392.5000 -115.5000 Du        
   5675 ****       234.7500 392.5000 -115.2500 Du        
   5676 ****       234.7500 392.7500 -117.0000 Du        
   5677 ****       234.7500 392.7500 -116.7500 Du        
   5678 ****       234.7500 392.7500 -116.5000 Du        
   5679 ****       234.7500 392.7500 -116.2500 Du        
   5680 ****       234.7500 392.7500 -116.0000 Du        
   5681 ****       234.7500 392.7500 -115.7500 Du        
   5682 ****       234.7500 392.7500 -115.5000 Du        
   5683 ****       234.7500 392.7500 -115.2500 Du        
   5684 ****       234.7500 393.0000 -117.0000 Du        
   5685 ****       234.7500 393.0000 -116.7500 Du        
   5686 ****       234.7500 393.0000 -116.5000 Du        
   5687 ****       234.7500 393.0000 -116.2500 Du        
   5688 ****       234.7500 393.0000 -116.0000 Du        
   5689 ****       234.7500 393.0000 -115.7500 Du        
   5690 ****       234.7500 393.0000 -115.5000 Du        
   5691 ****       234.7500 393.0000 -115.2500 Du        
   5692 ****       234.7500 393.2500 -116.7500 Du        
   5693 ****       234.7500 393.2500 -116.5000 Du        
   5694 ****       234.7500 393.2500 -116.2500 Du        
   5695 ****       234.7500 393.2500 -116.0000 Du        
   5696 ****       234.7500 393.2500 -115.7500 Du        
   5697 ****       234.7500 393.2500 -115.5000 Du        
   5698 ****       234.7500 393.2500 -115.2500 Du        
   5699 ****       234.7500 393.5000 -116.5000 Du        
   5700 ****       234.7500 393.5000 -116.2500 Du        
   5701 ****       234.7500 393.5000 -116.0000 Du        
   5702 ****       234.7500 393.5000 -115.7500 Du        
   5703 ****       234.7500 393.5000 -115.5000 Du        
   5704 ****       234.7500 393.5000 -115.2500 Du        
   5705 ****       234.7500 393.7500 -116.2500 Du        
   5706 ****       234.7500 393.7500 -116.0000 Du        
   5707 ****       234.7500 393.7500 -115.7500 Du        
   5708 ****       234.7500 393.7500 -115.5000 Du        
   5709 ****       235.0000 389.5000 -118.0000 Du        
   5710 ****       235.0000 389.5000 -117.7500 Du        
   5711 ****       235.0000 389.7500 -118.7500 Du        
   5712 ****       235.0000 389.7500 -118.5000 Du        
   5713 ****       235.0000 389.7500 -118.2500 Du        
   5714 ****       235.0000 389.7500 -118.0000 Du        
   5715 ****       235.0000 389.7500 -117.7500 Du        
   5716 ****       235.0000 389.7500 -117.5000 Du        
   5717 ****       235.0000 389.7500 -117.2500 Du        
   5718 ****       235.0000 389.7500 -117.0000 Du        
   5719 ****       235.0000 389.7500 -116.7500 Du        
   5720 ****       235.0000 389.7500 -116.5000 Du        
   5721 ****       235.0000 389.7500 -116.2500 Du        
   5722 ****       235.0000 390.0000 -119.2500 Du        
   5723 ****       235.0000 390.0000 -119.0000 Du        
   5724 ****       235.0000 390.0000 -118.7500 Du        
   5725 ****       235.0000 390.0000 -118.5000 Du        
   5726 ****       235.0000 390.0000 -118.2500 Du        
   5727 ****       235.0000 390.0000 -118.0000 Du        
   5728 ****       235.0000 390.0000 -117.7500 Du        
   5729 ****       235.0000 390.0000 -117.5000 Du        
   5730 ****       235.0000 390.0000 -117.2500 Du        
   5731 ****       235.0000 390.0000 -117.0000 Du        
   5732 ****       235.0000 390.0000 -116.7500 Du        
   5733 ****       235.0000 390.0000 -116.5000 Du        
   5734 ****       235.0000 390.0000 -116.2500 Du        
   5735 ****       235.0000 390.0000 -116.0000 Du        
   5736 ****       235.0000 390.0000 -115.7500 Du        
   5737 ****       235.0000 390.0000 -115.5000 Du        
   5738 ****       235.0000 390.2500 -119.2500 Du        
   5739 ****       235.0000 390.2500 -119.0000 Du        
   5740 ****       235.0000 390.2500 -118.7500 Du        
   5741 ****       235.0000 390.2500 -118.5000 Du        
   5742 ****       235.0000 390.2500 -118.2500 Du        
   5743 ****       235.0000 390.2500 -118.0000 Du        
   5744 ****       235.0000 390.2500 -117.7500 Du        
   5745 ****       235.0000 390.2500 -117.5000 Du        
   5746 ****       235.0000 390.2500 -117.2500 Du        
   5747 ****       235.0000 390.2500 -117.0000 Du        
   5748 ****       235.0000 390.2500 -116.7500 Du        
   5749 ****       235.0000 390.2500 -116.5000 Du        
   5750 ****       235.0000 390.2500 -116.2500 Du        
   5751 ****       235.0000 390.2500 -116.0000 Du        
   5752 ****       235.0000 390.2500 -115.7500 Du        
   5753 ****       235.0000 390.2500 -115.5000 Du        
   5754 ****       235.0000 390.2500 -115.2500 Du        
   5755 ****       235.0000 390.2500 -115.0000 Du        
   5756 ****       235.0000 390.5000 -119.2500 Du        
   5757 ****       235.0000 390.5000 -119.0000 Du        
   5758 ****       235.0000 390.5000 -118.7500 Du        
   5759 ****       235.0000 390.5000 -118.5000 Du        
   5760 ****       235.0000 390.5000 -118.2500 Du        
   5761 ****       235.0000 390.5000 -118.0000 Du        
   5762 ****       235.0000 390.5000 -117.7500 Du        
   5763 ****       235.0000 390.5000 -117.5000 Du        
   5764 ****       235.0000 390.5000 -117.2500 Du        
   5765 ****       235.0000 390.5000 -117.0000 Du        
   5766 ****       235.0000 390.5000 -116.7500 Du        
   5767 ****       235.0000 390.5000 -116.5000 Du        
   5768 ****       235.0000 390.5000 -116.2500 Du        
   5769 ****       235.0000 390.5000 -116.0000 Du        
   5770 ****       235.0000 390.5000 -115.7500 Du        
   5771 ****       235.0000 390.5000 -115.5000 Du        
   5772 ****       235.0000 390.5000 -115.2500 Du        
   5773 ****       235.0000 390.5000 -115.0000 Du        
   5774 ****       235.0000 390.7500 -119.2500 Du        
   5775 ****       235.0000 390.7500 -119.0000 Du        
   5776 ****       235.0000 390.7500 -118.7500 Du        
   5777 ****       235.0000 390.7500 -118.5000 Du        
   5778 ****       235.0000 390.7500 -118.2500 Du        
   5779 ****       235.0000 390.7500 -118.0000 Du        
   5780 ****       235.0000 390.7500 -117.7500 Du        
   5781 ****       235.0000 390.7500 -117.5000 Du        
   5782 ****       235.0000 390.7500 -117.2500 Du        
   5783 ****       235.0000 390.7500 -117.0000 Du        
   5784 ****       235.0000 390.7500 -116.7500 Du        
   5785 ****       235.0000 390.7500 -116.5000 Du        
   5786 ****       235.0000 390.7500 -116.2500 Du        
   5787 ****       235.0000 390.7500 -116.0000 Du        
   5788 ****       235.0000 390.7500 -115.7500 Du        
   5789 ****       235.0000 390.7500 -115.5000 Du        
   5790 ****       235.0000 390.7500 -115.2500 Du        
   5791 ****       235.0000 390.7500 -115.0000 Du        
   5792 ****       235.0000 390.7500 -114.7500 Du        
   5793 ****       235.0000 391.0000 -119.0000 Du        
   5794 ****       235.0000 391.0000 -118.7500 Du        
   5795 ****       235.0000 391.0000 -118.5000 Du        
   5796 ****       235.0000 391.0000 -118.2500 Du        
   5797 ****       235.0000 391.0000 -118.0000 Du        
   5798 ****       235.0000 391.0000 -117.7500 Du        
   5799 ****       235.0000 391.0000 -117.5000 Du        
   5800 ****       235.0000 391.0000 -117.2500 Du        
   5801 ****       235.0000 391.0000 -117.0000 Du        
   5802 ****       235.0000 391.0000 -116.7500 Du        
   5803 ****       235.0000 391.0000 -116.5000 Du        
   5804 ****       235.0000 391.0000 -116.2500 Du        
   5805 ****       235.0000 391.0000 -116.0000 Du        
   5806 ****       235.0000 391.0000 -115.7500 Du        
   5807 ****       235.0000 391.0000 -115.5000 Du        
   5808 ****       235.0000 391.0000 -115.2500 Du        
   5809 ****       235.0000 391.0000 -115.0000 Du        
   5810 ****       235.0000 391.0000 -114.7500 Du        
   5811 ****       235.0000 391.2500 -118.5000 Du        
   5812 ****       235.0000 391.2500 -118.2500 Du        
   5813 ****       235.0000 391.2500 -118.0000 Du        
   5814 ****       235.0000 391.2500 -117.7500 Du        
   5815 ****       235.0000 391.2500 -117.5000 Du        
   5816 ****       235.0000 391.2500 -117.2500 Du        
   5817 ****       235.0000 391.2500 -117.0000 Du        
   5818 ****       235.0000 391.2500 -116.7500 Du        
   5819 ****       235.0000 391.2500 -116.5000 Du        
   5820 ****       235.0000 391.2500 -116.2500 Du        
   5821 ****       235.0000 391.2500 -116.0000 Du        
   5822 ****       235.0000 391.2500 -115.7500 Du        
   5823 ****       235.0000 391.2500 -115.5000 Du        
   5824 ****       235.0000 391.2500 -115.2500 Du        
   5825 ****       235.0000 391.2500 -115.0000 Du        
   5826 ****       235.0000 391.2500 -114.7500 Du        
   5827 ****       235.0000 391.5000 -118.0000 Du        
   5828 ****       235.0000 391.5000 -117.7500 Du        
   5829 ****       235.0000 391.5000 -117.5000 Du        
   5830 ****       235.0000 391.5000 -117.2500 Du        
   5831 ****       235.0000 391.5000 -117.0000 Du        
   5832 ****       235.0000 391.5000 -116.7500 Du        
   5833 ****       235.0000 391.5000 -116.5000 Du        
   5834 ****       235.0000 391.5000 -116.2500 Du        
   5835 ****       235.0000 391.5000 -116.0000 Du        
   5836 ****       235.0000 391.5000 -115.7500 Du        
   5837 ****       235.0000 391.5000 -115.5000 Du        
   5838 ****       235.0000 391.5000 -115.2500 Du        
   5839 ****       235.0000 391.5000 -115.0000 Du        
   5840 ****       235.0000 391.5000 -114.7500 Du        
   5841 ****       235.0000 391.7500 -117.7500 Du        
   5842 ****       235.0000 391.7500 -117.5000 Du        
   5843 ****       235.0000 391.7500 -117.2500 Du        
   5844 ****       235.0000 391.7500 -117.0000 Du        
   5845 ****       235.0000 391.7500 -116.7500 Du        
   5846 ****       235.0000 391.7500 -116.5000 Du        
   5847 ****       235.0000 391.7500 -116.2500 Du        
   5848 ****       235.0000 391.7500 -116.0000 Du        
   5849 ****       235.0000 391.7500 -115.7500 Du        
   5850 ****       235.0000 391.7500 -115.5000 Du        
   5851 ****       235.0000 391.7500 -115.2500 Du        
   5852 ****       235.0000 391.7500 -115.0000 Du        
   5853 ****       235.0000 392.0000 -117.7500 Du        
   5854 ****       235.0000 392.0000 -117.5000 Du        
   5855 ****       235.0000 392.0000 -117.2500 Du        
   5856 ****       235.0000 392.0000 -117.0000 Du        
   5857 ****       235.0000 392.0000 -116.7500 Du        
   5858 ****       235.0000 392.0000 -116.5000 Du        
   5859 ****       235.0000 392.0000 -116.2500 Du        
   5860 ****       235.0000 392.0000 -116.0000 Du        
   5861 ****       235.0000 392.0000 -115.7500 Du        
   5862 ****       235.0000 392.0000 -115.5000 Du        
   5863 ****       235.0000 392.0000 -115.2500 Du        
   5864 ****       235.0000 392.0000 -115.0000 Du        
   5865 ****       235.0000 392.2500 -117.5000 Du        
   5866 ****       235.0000 392.2500 -117.2500 Du        
   5867 ****       235.0000 392.2500 -117.0000 Du        
   5868 ****       235.0000 392.2500 -116.7500 Du        
   5869 ****       235.0000 392.2500 -116.5000 Du        
   5870 ****       235.0000 392.2500 -116.2500 Du        
   5871 ****       235.0000 392.2500 -116.0000 Du        
   5872 ****       235.0000 392.2500 -115.7500 Du        
   5873 ****       235.0000 392.2500 -115.5000 Du        
   5874 ****       235.0000 392.2500 -115.2500 Du        
   5875 ****       235.0000 392.2500 -115.0000 Du        
   5876 ****       235.0000 392.5000 -117.2500 Du        
   5877 ****       235.0000 392.5000 -117.0000 Du        
   5878 ****       235.0000 392.5000 -116.7500 Du        
   5879 ****       235.0000 392.5000 -116.5000 Du        
   5880 ****       235.0000 392.5000 -116.2500 Du        
   5881 ****       235.0000 392.5000 -116.0000 Du        
   5882 ****       235.0000 392.5000 -115.7500 Du        
   5883 ****       235.0000 392.5000 -115.5000 Du        
   5884 ****       235.0000 392.5000 -115.2500 Du        
   5885 ****       235.0000 392.7500 -117.2500 Du        
   5886 ****       235.0000 392.7500 -117.0000 Du        
   5887 ****       235.0000 392.7500 -116.7500 Du        
   5888 ****       235.0000 392.7500 -116.5000 Du        
   5889 ****       235.0000 392.7500 -116.2500 Du        
   5890 ****       235.0000 392.7500 -116.0000 Du        
   5891 ****       235.0000 392.7500 -115.7500 Du        
   5892 ****       235.0000 392.7500 -115.5000 Du        
   5893 ****       235.0000 392.7500 -115.2500 Du        
   5894 ****       235.0000 393.0000 -117.2500 Du        
   5895 ****       235.0000 393.0000 -117.0000 Du        
   5896 ****       235.0000 393.0000 -116.7500 Du        
   5897 ****       235.0000 393.0000 -116.5000 Du        
   5898 ****       235.0000 393.0000 -116.2500 Du        
   5899 ****       235.0000 393.0000 -116.0000 Du        
   5900 ****       235.0000 393.0000 -115.7500 Du        
   5901 ****       235.0000 393.0000 -115.5000 Du        
   5902 ****       235.0000 393.0000 -115.2500 Du        
   5903 ****       235.0000 393.2500 -117.0000 Du        
   5904 ****       235.0000 393.2500 -116.7500 Du        
   5905 ****       235.0000 393.2500 -116.5000 Du        
   5906 ****       235.0000 393.2500 -116.2500 Du        
   5907 ****       235.0000 393.2500 -116.0000 Du        
   5908 ****       235.0000 393.2500 -115.7500 Du        
   5909 ****       235.0000 393.2500 -115.5000 Du        
   5910 ****       235.0000 393.2500 -115.2500 Du        
   5911 ****       235.0000 393.5000 -116.5000 Du        
   5912 ****       235.0000 393.5000 -116.2500 Du        
   5913 ****       235.0000 393.5000 -116.0000 Du        
   5914 ****       235.0000 393.5000 -115.7500 Du        
   5915 ****       235.0000 393.5000 -115.5000 Du        
   5916 ****       235.0000 393.7500 -116.2500 Du        
   5917 ****       235.0000 393.7500 -116.0000 Du        
   5918 ****       235.0000 393.7500 -115.7500 Du        
   5919 ****       235.0000 393.7500 -115.5000 Du        
   5920 ****       235.2500 389.7500 -118.7500 Du        
   5921 ****       235.2500 389.7500 -118.5000 Du        
   5922 ****       235.2500 389.7500 -118.2500 Du        
   5923 ****       235.2500 389.7500 -118.0000 Du        
   5924 ****       235.2500 389.7500 -117.7500 Du        
   5925 ****       235.2500 389.7500 -117.5000 Du        
   5926 ****       235.2500 389.7500 -117.2500 Du        
   5927 ****       235.2500 390.0000 -119.2500 Du        
   5928 ****       235.2500 390.0000 -119.0000 Du        
   5929 ****       235.2500 390.0000 -118.7500 Du        
   5930 ****       235.2500 390.0000 -118.5000 Du        
   5931 ****       235.2500 390.0000 -118.2500 Du        
   5932 ****       235.2500 390.0000 -118.0000 Du        
   5933 ****       235.2500 390.0000 -117.7500 Du        
   5934 ****       235.2500 390.0000 -117.5000 Du        
   5935 ****       235.2500 390.0000 -117.2500 Du        
   5936 ****       235.2500 390.0000 -117.0000 Du        
   5937 ****       235.2500 390.0000 -116.7500 Du        
   5938 ****       235.2500 390.0000 -116.5000 Du        
   5939 ****       235.2500 390.0000 -116.2500 Du        
   5940 ****       235.2500 390.0000 -116.0000 Du        
   5941 ****       235.2500 390.2500 -119.2500 Du        
   5942 ****       235.2500 390.2500 -119.0000 Du        
   5943 ****       235.2500 390.2500 -118.7500 Du        
   5944 ****       235.2500 390.2500 -118.5000 Du        
   5945 ****       235.2500 390.2500 -118.2500 Du        
   5946 ****       235.2500 390.2500 -118.0000 Du        
   5947 ****       235.2500 390.2500 -117.7500 Du        
   5948 ****       235.2500 390.2500 -117.5000 Du        
   5949 ****       235.2500 390.2500 -117.2500 Du        
   5950 ****       235.2500 390.2500 -117.0000 Du        
   5951 ****       235.2500 390.2500 -116.7500 Du        
   5952 ****       235.2500 390.2500 -116.5000 Du        
   5953 ****       235.2500 390.2500 -116.2500 Du        
   5954 ****       235.2500 390.2500 -116.0000 Du        
   5955 ****       235.2500 390.2500 -115.7500 Du        
   5956 ****       235.2500 390.2500 -115.5000 Du        
   5957 ****       235.2500 390.5000 -119.2500 Du        
   5958 ****       235.2500 390.5000 -119.0000 Du        
   5959 ****       235.2500 390.5000 -118.7500 Du        
   5960 ****       235.2500 390.5000 -118.5000 Du        
   5961 ****       235.2500 390.5000 -118.2500 Du        
   5962 ****       235.2500 390.5000 -118.0000 Du        
   5963 ****       235.2500 390.5000 -117.7500 Du        
   5964 ****       235.2500 390.5000 -117.5000 Du        
   5965 ****       235.2500 390.5000 -117.2500 Du        
   5966 ****       235.2500 390.5000 -117.0000 Du        
   5967 ****       235.2500 390.5000 -116.7500 Du        
   5968 ****       235.2500 390.5000 -116.5000 Du        
   5969 ****       235.2500 390.5000 -116.2500 Du        
   5970 ****       235.2500 390.5000 -116.0000 Du        
   5971 ****       235.2500 390.5000 -115.7500 Du        
   5972 ****       235.2500 390.5000 -115.5000 Du        
   5973 ****       235.2500 390.5000 -115.2500 Du        
   5974 ****       235.2500 390.7500 -119.2500 Du        
   5975 ****       235.2500 390.7500 -119.0000 Du        
   5976 ****       235.2500 390.7500 -118.7500 Du        
   5977 ****       235.2500 390.7500 -118.5000 Du        
   5978 ****       235.2500 390.7500 -118.2500 Du        
   5979 ****       235.2500 390.7500 -118.0000 Du        
   5980 ****       235.2500 390.7500 -117.7500 Du        
   5981 ****       235.2500 390.7500 -117.5000 Du        
   5982 ****       235.2500 390.7500 -117.2500 Du        
   5983 ****       235.2500 390.7500 -117.0000 Du        
   5984 ****       235.2500 390.7500 -116.7500 Du        
   5985 ****       235.2500 390.7500 -116.5000 Du        
   5986 ****       235.2500 390.7500 -116.2500 Du        
   5987 ****       235.2500 390.7500 -116.0000 Du        
   5988 ****       235.2500 390.7500 -115.7500 Du        
   5989 ****       235.2500 390.7500 -115.5000 Du        
   5990 ****       235.2500 390.7500 -115.2500 Du        
   5991 ****       235.2500 390.7500 -115.0000 Du        
   5992 ****       235.2500 391.0000 -119.0000 Du        
   5993 ****       235.2500 391.0000 -118.7500 Du        
   5994 ****       235.2500 391.0000 -118.5000 Du        
   5995 ****       235.2500 391.0000 -118.2500 Du        
   5996 ****       235.2500 391.0000 -118.0000 Du        
   5997 ****       235.2500 391.0000 -117.7500 Du        
   5998 ****       235.2500 391.0000 -117.5000 Du        
   5999 ****       235.2500 391.0000 -117.2500 Du        
   6000 ****       235.2500 391.0000 -117.0000 Du        
   6001 ****       235.2500 391.0000 -116.7500 Du        
   6002 ****       235.2500 391.0000 -116.5000 Du        
   6003 ****       235.2500 391.0000 -116.2500 Du        
   6004 ****       235.2500 391.0000 -116.0000 Du        
   6005 ****       235.2500 391.0000 -115.7500 Du        
   6006 ****       235.2500 391.0000 -115.5000 Du        
   6007 ****       235.2500 391.0000 -115.2500 Du        
   6008 ****       235.2500 391.0000 -115.0000 Du        
   6009 ****       235.2500 391.0000 -114.7500 Du        
   6010 ****       235.2500 391.2500 -118.7500 Du        
   6011 ****       235.2500 391.2500 -118.5000 Du        
   6012 ****       235.2500 391.2500 -118.2500 Du        
   6013 ****       235.2500 391.2500 -118.0000 Du        
   6014 ****       235.2500 391.2500 -117.7500 Du        
   6015 ****       235.2500 391.2500 -117.5000 Du        
   6016 ****       235.2500 391.2500 -117.2500 Du        
   6017 ****       235.2500 391.2500 -117.0000 Du        
   6018 ****       235.2500 391.2500 -116.7500 Du        
   6019 ****       235.2500 391.2500 -116.5000 Du        
   6020 ****       235.2500 391.2500 -116.2500 Du        
   6021 ****       235.2500 391.2500 -116.0000 Du        
   6022 ****       235.2500 391.2500 -115.7500 Du        
   6023 ****       235.2500 391.2500 -115.5000 Du        
   6024 ****       235.2500 391.2500 -115.2500 Du        
   6025 ****       235.2500 391.2500 -115.0000 Du        
   6026 ****       235.2500 391.2500 -114.7500 Du        
   6027 ****       235.2500 391.5000 -118.2500 Du        
   6028 ****       235.2500 391.5000 -118.0000 Du        
   6029 ****       235.2500 391.5000 -117.7500 Du        
   6030 ****       235.2500 391.5000 -117.5000 Du        
   6031 ****       235.2500 391.5000 -117.2500 Du        
   6032 ****       235.2500 391.5000 -117.0000 Du        
   6033 ****       235.2500 391.5000 -116.7500 Du        
   6034 ****       235.2500 391.5000 -116.5000 Du        
   6035 ****       235.2500 391.5000 -116.2500 Du        
   6036 ****       235.2500 391.5000 -116.0000 Du        
   6037 ****       235.2500 391.5000 -115.7500 Du        
   6038 ****       235.2500 391.5000 -115.5000 Du        
   6039 ****       235.2500 391.5000 -115.2500 Du        
   6040 ****       235.2500 391.5000 -115.0000 Du        
   6041 ****       235.2500 391.7500 -118.0000 Du        
   6042 ****       235.2500 391.7500 -117.7500 Du        
   6043 ****       235.2500 391.7500 -117.5000 Du        
   6044 ****       235.2500 391.7500 -117.2500 Du        
   6045 ****       235.2500 391.7500 -117.0000 Du        
   6046 ****       235.2500 391.7500 -116.7500 Du        
   6047 ****       235.2500 391.7500 -116.5000 Du        
   6048 ****       235.2500 391.7500 -116.2500 Du        
   6049 ****       235.2500 391.7500 -116.0000 Du        
   6050 ****       235.2500 391.7500 -115.7500 Du        
   6051 ****       235.2500 391.7500 -115.5000 Du        
   6052 ****       235.2500 391.7500 -115.2500 Du        
   6053 ****       235.2500 391.7500 -115.0000 Du        
   6054 ****       235.2500 392.0000 -118.0000 Du        
   6055 ****       235.2500 392.0000 -117.7500 Du        
   6056 ****       235.2500 392.0000 -117.5000 Du        
   6057 ****       235.2500 392.0000 -117.2500 Du        
   6058 ****       235.2500 392.0000 -117.0000 Du        
   6059 ****       235.2500 392.0000 -116.7500 Du        
   6060 ****       235.2500 392.0000 -116.5000 Du        
   6061 ****       235.2500 392.0000 -116.2500 Du        
   6062 ****       235.2500 392.0000 -116.0000 Du        
   6063 ****       235.2500 392.0000 -115.7500 Du        
   6064 ****       235.2500 392.0000 -115.5000 Du        
   6065 ****       235.2500 392.0000 -115.2500 Du        
   6066 ****       235.2500 392.0000 -115.0000 Du        
   6067 ****       235.2500 392.2500 -117.7500 Du        
   6068 ****       235.2500 392.2500 -117.5000 Du        
   6069 ****       235.2500 392.2500 -117.2500 Du        
   6070 ****       235.2500 392.2500 -117.0000 Du        
   6071 ****       235.2500 392.2500 -116.7500 Du        
   6072 ****       235.2500 392.2500 -116.5000 Du        
   6073 ****       235.2500 392.2500 -116.2500 Du        
   6074 ****       235.2500 392.2500 -116.0000 Du        
   6075 ****       235.2500 392.2500 -115.7500 Du        
   6076 ****       235.2500 392.2500 -115.5000 Du        
   6077 ****       235.2500 392.2500 -115.2500 Du        
   6078 ****       235.2500 392.5000 -117.5000 Du        
   6079 ****       235.2500 392.5000 -117.2500 Du        
   6080 ****       235.2500 392.5000 -117.0000 Du        
   6081 ****       235.2500 392.5000 -116.7500 Du        
   6082 ****       235.2500 392.5000 -116.5000 Du        
   6083 ****       235.2500 392.5000 -116.2500 Du        
   6084 ****       235.2500 392.5000 -116.0000 Du        
   6085 ****       235.2500 392.5000 -115.7500 Du        
   6086 ****       235.2500 392.5000 -115.5000 Du        
   6087 ****       235.2500 392.5000 -115.2500 Du        
   6088 ****       235.2500 392.7500 -117.5000 Du        
   6089 ****       235.2500 392.7500 -117.2500 Du        
   6090 ****       235.2500 392.7500 -117.0000 Du        
   6091 ****       235.2500 392.7500 -116.7500 Du        
   6092 ****       235.2500 392.7500 -116.5000 Du        
   6093 ****       235.2500 392.7500 -116.2500 Du        
   6094 ****       235.2500 392.7500 -116.0000 Du        
   6095 ****       235.2500 392.7500 -115.7500 Du        
   6096 ****       235.2500 392.7500 -115.5000 Du        
   6097 ****       235.2500 392.7500 -115.2500 Du        
   6098 ****       235.2500 393.0000 -117.2500 Du        
   6099 ****       235.2500 393.0000 -117.0000 Du        
   6100 ****       235.2500 393.0000 -116.7500 Du        
   6101 ****       235.2500 393.0000 -116.5000 Du        
   6102 ****       235.2500 393.0000 -116.2500 Du        
   6103 ****       235.2500 393.0000 -116.0000 Du        
   6104 ****       235.2500 393.0000 -115.7500 Du        
   6105 ****       235.2500 393.0000 -115.5000 Du        
   6106 ****       235.2500 393.0000 -115.2500 Du        
   6107 ****       235.2500 393.2500 -117.0000 Du        
   6108 ****       235.2500 393.2500 -116.7500 Du        
   6109 ****       235.2500 393.2500 -116.5000 Du        
   6110 ****       235.2500 393.2500 -116.2500 Du        
   6111 ****       235.2500 393.2500 -116.0000 Du        
   6112 ****       235.2500 393.2500 -115.7500 Du        
   6113 ****       235.2500 393.2500 -115.5000 Du        
   6114 ****       235.2500 393.2500 -115.2500 Du        
   6115 ****       235.2500 393.5000 -116.7500 Du        
   6116 ****       235.2500 393.5000 -116.5000 Du        
   6117 ****       235.2500 393.5000 -116.2500 Du        
   6118 ****       235.2500 393.5000 -116.0000 Du        
   6119 ****       235.2500 393.5000 -115.7500 Du        
   6120 ****       235.2500 393.5000 -115.5000 Du        
   6121 ****       235.2500 393.7500 -116.2500 Du        
   6122 ****       235.2500 393.7500 -116.0000 Du        
   6123 ****       235.2500 393.7500 -115.7500 Du        
   6124 ****       235.5000 389.7500 -118.7500 Du        
   6125 ****       235.5000 389.7500 -118.5000 Du        
   6126 ****       235.5000 390.0000 -119.2500 Du        
   6127 ****       235.5000 390.0000 -119.0000 Du        
   6128 ****       235.5000 390.0000 -118.7500 Du        
   6129 ****       235.5000 390.0000 -118.5000 Du        
   6130 ****       235.5000 390.0000 -118.2500 Du        
   6131 ****       235.5000 390.0000 -118.0000 Du        
   6132 ****       235.5000 390.0000 -117.7500 Du        
   6133 ****       235.5000 390.0000 -117.5000 Du        
   6134 ****       235.5000 390.0000 -117.2500 Du        
   6135 ****       235.5000 390.2500 -119.2500 Du        
   6136 ****       235.5000 390.2500 -119.0000 Du        
   6137 ****       235.5000 390.2500 -118.7500 Du        
   6138 ****       235.5000 390.2500 -118.5000 Du        
   6139 ****       235.5000 390.2500 -118.2500 Du        
   6140 ****       235.5000 390.2500 -118.0000 Du        
   6141 ****       235.5000 390.2500 -117.7500 Du        
   6142 ****       235.5000 390.2500 -117.5000 Du        
   6143 ****       235.5000 390.2500 -117.2500 Du        
   6144 ****       235.5000 390.2500 -117.0000 Du        
   6145 ****       235.5000 390.2500 -116.7500 Du        
   6146 ****       235.5000 390.2500 -116.5000 Du        
   6147 ****       235.5000 390.2500 -116.2500 Du        
   6148 ****       235.5000 390.2500 -116.0000 Du        
   6149 ****       235.5000 390.2500 -115.7500 Du        
   6150 ****       235.5000 390.5000 -119.2500 Du        
   6151 ****       235.5000 390.5000 -119.0000 Du        
   6152 ****       235.5000 390.5000 -118.7500 Du        
   6153 ****       235.5000 390.5000 -118.5000 Du        
   6154 ****       235.5000 390.5000 -118.2500 Du        
   6155 ****       235.5000 390.5000 -118.0000 Du        
   6156 ****       235.5000 390.5000 -117.7500 Du        
   6157 ****       235.5000 390.5000 -117.5000 Du        
   6158 ****       235.5000 390.5000 -117.2500 Du        
   6159 ****       235.5000 390.5000 -117.0000 Du        
   6160 ****       235.5000 390.5000 -116.7500 Du        
   6161 ****       235.5000 390.5000 -116.5000 Du        
   6162 ****       235.5000 390.5000 -116.2500 Du        
   6163 ****       235.5000 390.5000 -116.0000 Du        
   6164 ****       235.5000 390.5000 -115.7500 Du        
   6165 ****       235.5000 390.5000 -115.5000 Du        
   6166 ****       235.5000 390.7500 -119.2500 Du        
   6167 ****       235.5000 390.7500 -119.0000 Du        
   6168 ****       235.5000 390.7500 -118.7500 Du        
   6169 ****       235.5000 390.7500 -118.5000 Du        
   6170 ****       235.5000 390.7500 -118.2500 Du        
   6171 ****       235.5000 390.7500 -118.0000 Du        
   6172 ****       235.5000 390.7500 -117.7500 Du        
   6173 ****       235.5000 390.7500 -117.5000 Du        
   6174 ****       235.5000 390.7500 -117.2500 Du        
   6175 ****       235.5000 390.7500 -117.0000 Du        
   6176 ****       235.5000 390.7500 -116.7500 Du        
   6177 ****       235.5000 390.7500 -116.5000 Du        
   6178 ****       235.5000 390.7500 -116.2500 Du        
   6179 ****       235.5000 390.7500 -116.0000 Du        
   6180 ****       235.5000 390.7500 -115.7500 Du        
   6181 ****       235.5000 390.7500 -115.5000 Du        
   6182 ****       235.5000 390.7500 -115.2500 Du        
   6183 ****       235.5000 391.0000 -119.0000 Du        
   6184 ****       235.5000 391.0000 -118.7500 Du        
   6185 ****       235.5000 391.0000 -118.5000 Du        
   6186 ****       235.5000 391.0000 -118.2500 Du        
   6187 ****       235.5000 391.0000 -118.0000 Du        
   6188 ****       235.5000 391.0000 -117.7500 Du        
   6189 ****       235.5000 391.0000 -117.5000 Du        
   6190 ****       235.5000 391.0000 -117.2500 Du        
   6191 ****       235.5000 391.0000 -117.0000 Du        
   6192 ****       235.5000 391.0000 -116.7500 Du        
   6193 ****       235.5000 391.0000 -116.5000 Du        
   6194 ****       235.5000 391.0000 -116.2500 Du        
   6195 ****       235.5000 391.0000 -116.0000 Du        
   6196 ****       235.5000 391.0000 -115.7500 Du        
   6197 ****       235.5000 391.0000 -115.5000 Du        
   6198 ****       235.5000 391.0000 -115.2500 Du        
   6199 ****       235.5000 391.0000 -115.0000 Du        
   6200 ****       235.5000 391.2500 -118.7500 Du        
   6201 ****       235.5000 391.2500 -118.5000 Du        
   6202 ****       235.5000 391.2500 -118.2500 Du        
   6203 ****       235.5000 391.2500 -118.0000 Du        
   6204 ****       235.5000 391.2500 -117.7500 Du        
   6205 ****       235.5000 391.2500 -117.5000 Du        
   6206 ****       235.5000 391.2500 -117.2500 Du        
   6207 ****       235.5000 391.2500 -117.0000 Du        
   6208 ****       235.5000 391.2500 -116.7500 Du        
   6209 ****       235.5000 391.2500 -116.5000 Du        
   6210 ****       235.5000 391.2500 -116.2500 Du        
   6211 ****       235.5000 391.2500 -116.0000 Du        
   6212 ****       235.5000 391.2500 -115.7500 Du        
   6213 ****       235.5000 391.2500 -115.5000 Du        
   6214 ****       235.5000 391.2500 -115.2500 Du        
   6215 ****       235.5000 391.2500 -115.0000 Du        
   6216 ****       235.5000 391.5000 -118.5000 Du        
   6217 ****       235.5000 391.5000 -118.2500 Du        
   6218 ****       235.5000 391.5000 -118.0000 Du        
   6219 ****       235.5000 391.5000 -117.7500 Du        
   6220 ****       235.5000 391.5000 -117.5000 Du        
   6221 ****       235.5000 391.5000 -117.2500 Du        
   6222 ****       235.5000 391.5000 -117.0000 Du        
   6223 ****       235.5000 391.5000 -116.7500 Du        
   6224 ****       235.5000 391.5000 -116.5000 Du        
   6225 ****       235.5000 391.5000 -116.2500 Du        
   6226 ****       235.5000 391.5000 -116.0000 Du        
   6227 ****       235.5000 391.5000 -115.7500 Du        
   6228 ****       235.5000 391.5000 -115.5000 Du        
   6229 ****       235.5000 391.5000 -115.2500 Du        
   6230 ****       235.5000 391.5000 -115.0000 Du        
   6231 ****       235.5000 391.7500 -118.2500 Du        
   6232 ****       235.5000 391.7500 -118.0000 Du        
   6233 ****       235.5000 391.7500 -117.7500 Du        
   6234 ****       235.5000 391.7500 -117.5000 Du        
   6235 ****       235.5000 391.7500 -117.2500 Du        
   6236 ****       235.5000 391.7500 -117.0000 Du        
   6237 ****       235.5000 391.7500 -116.7500 Du        
   6238 ****       235.5000 391.7500 -116.5000 Du        
   6239 ****       235.5000 391.7500 -116.2500 Du        
   6240 ****       235.5000 391.7500 -116.0000 Du        
   6241 ****       235.5000 391.7500 -115.7500 Du        
   6242 ****       235.5000 391.7500 -115.5000 Du        
   6243 ****       235.5000 391.7500 -115.2500 Du        
   6244 ****       235.5000 391.7500 -115.0000 Du        
   6245 ****       235.5000 392.0000 -118.0000 Du        
   6246 ****       235.5000 392.0000 -117.7500 Du        
   6247 ****       235.5000 392.0000 -117.5000 Du        
   6248 ****       235.5000 392.0000 -117.2500 Du        
   6249 ****       235.5000 392.0000 -117.0000 Du        
   6250 ****       235.5000 392.0000 -116.7500 Du        
   6251 ****       235.5000 392.0000 -116.5000 Du        
   6252 ****       235.5000 392.0000 -116.2500 Du        
   6253 ****       235.5000 392.0000 -116.0000 Du        
   6254 ****       235.5000 392.0000 -115.7500 Du        
   6255 ****       235.5000 392.0000 -115.5000 Du        
   6256 ****       235.5000 392.0000 -115.2500 Du        
   6257 ****       235.5000 392.0000 -115.0000 Du        
   6258 ****       235.5000 392.2500 -117.7500 Du        
   6259 ****       235.5000 392.2500 -117.5000 Du        
   6260 ****       235.5000 392.2500 -117.2500 Du        
   6261 ****       235.5000 392.2500 -117.0000 Du        
   6262 ****       235.5000 392.2500 -116.7500 Du        
   6263 ****       235.5000 392.2500 -116.5000 Du        
   6264 ****       235.5000 392.2500 -116.2500 Du        
   6265 ****       235.5000 392.2500 -116.0000 Du        
   6266 ****       235.5000 392.2500 -115.7500 Du        
   6267 ****       235.5000 392.2500 -115.5000 Du        
   6268 ****       235.5000 392.2500 -115.2500 Du        
   6269 ****       235.5000 392.5000 -117.7500 Du        
   6270 ****       235.5000 392.5000 -117.5000 Du        
   6271 ****       235.5000 392.5000 -117.2500 Du        
   6272 ****       235.5000 392.5000 -117.0000 Du        
   6273 ****       235.5000 392.5000 -116.7500 Du        
   6274 ****       235.5000 392.5000 -116.5000 Du        
   6275 ****       235.5000 392.5000 -116.2500 Du        
   6276 ****       235.5000 392.5000 -116.0000 Du        
   6277 ****       235.5000 392.5000 -115.7500 Du        
   6278 ****       235.5000 392.5000 -115.5000 Du        
   6279 ****       235.5000 392.5000 -115.2500 Du        
   6280 ****       235.5000 392.7500 -117.5000 Du        
   6281 ****       235.5000 392.7500 -117.2500 Du        
   6282 ****       235.5000 392.7500 -117.0000 Du        
   6283 ****       235.5000 392.7500 -116.7500 Du        
   6284 ****       235.5000 392.7500 -116.5000 Du        
   6285 ****       235.5000 392.7500 -116.2500 Du        
   6286 ****       235.5000 392.7500 -116.0000 Du        
   6287 ****       235.5000 392.7500 -115.7500 Du        
   6288 ****       235.5000 392.7500 -115.5000 Du        
   6289 ****       235.5000 392.7500 -115.2500 Du        
   6290 ****       235.5000 393.0000 -117.2500 Du        
   6291 ****       235.5000 393.0000 -117.0000 Du        
   6292 ****       235.5000 393.0000 -116.7500 Du        
   6293 ****       235.5000 393.0000 -116.5000 Du        
   6294 ****       235.5000 393.0000 -116.2500 Du        
   6295 ****       235.5000 393.0000 -116.0000 Du        
   6296 ****       235.5000 393.0000 -115.7500 Du        
   6297 ****       235.5000 393.0000 -115.5000 Du        
   6298 ****       235.5000 393.0000 -115.2500 Du        
   6299 ****       235.5000 393.2500 -117.0000 Du        
   6300 ****       235.5000 393.2500 -116.7500 Du        
   6301 ****       235.5000 393.2500 -116.5000 Du        
   6302 ****       235.5000 393.2500 -116.2500 Du        
   6303 ****       235.5000 393.2500 -116.0000 Du        
   6304 ****       235.5000 393.2500 -115.7500 Du        
   6305 ****       235.5000 393.2500 -115.5000 Du        
   6306 ****       235.5000 393.5000 -116.7500 Du        
   6307 ****       235.5000 393.5000 -116.5000 Du        
   6308 ****       235.5000 393.5000 -116.2500 Du        
   6309 ****       235.5000 393.5000 -116.0000 Du        
   6310 ****       235.5000 393.5000 -115.7500 Du        
   6311 ****       235.5000 393.5000 -115.5000 Du        
   6312 ****       235.5000 393.7500 -116.2500 Du        
   6313 ****       235.5000 393.7500 -116.0000 Du        
   6314 ****       235.5000 393.7500 -115.7500 Du        
   6315 ****       235.7500 390.0000 -119.0000 Du        
   6316 ****       235.7500 390.0000 -118.7500 Du        
   6317 ****       235.7500 390.2500 -119.2500 Du        
   6318 ****       235.7500 390.2500 -119.0000 Du        
   6319 ****       235.7500 390.2500 -118.7500 Du        
   6320 ****       235.7500 390.2500 -118.5000 Du        
   6321 ****       235.7500 390.2500 -118.2500 Du        
   6322 ****       235.7500 390.2500 -118.0000 Du        
   6323 ****       235.7500 390.5000 -119.2500 Du        
   6324 ****       235.7500 390.5000 -119.0000 Du        
   6325 ****       235.7500 390.5000 -118.7500 Du        
   6326 ****       235.7500 390.5000 -118.5000 Du        
   6327 ****       235.7500 390.5000 -118.2500 Du        
   6328 ****       235.7500 390.5000 -118.0000 Du        
   6329 ****       235.7500 390.5000 -117.7500 Du        
   6330 ****       235.7500 390.5000 -117.5000 Du        
   6331 ****       235.7500 390.5000 -117.2500 Du        
   6332 ****       235.7500 390.5000 -117.0000 Du        
   6333 ****       235.7500 390.5000 -116.7500 Du        
   6334 ****       235.7500 390.5000 -116.5000 Du        
   6335 ****       235.7500 390.5000 -116.2500 Du        
   6336 ****       235.7500 390.5000 -116.0000 Du        
   6337 ****       235.7500 390.5000 -115.7500 Du        
   6338 ****       235.7500 390.7500 -119.0000 Du        
   6339 ****       235.7500 390.7500 -118.7500 Du        
   6340 ****       235.7500 390.7500 -118.5000 Du        
   6341 ****       235.7500 390.7500 -118.2500 Du        
   6342 ****       235.7500 390.7500 -118.0000 Du        
   6343 ****       235.7500 390.7500 -117.7500 Du        
   6344 ****       235.7500 390.7500 -117.5000 Du        
   6345 ****       235.7500 390.7500 -117.2500 Du        
   6346 ****       235.7500 390.7500 -117.0000 Du        
   6347 ****       235.7500 390.7500 -116.7500 Du        
   6348 ****       235.7500 390.7500 -116.5000 Du        
   6349 ****       235.7500 390.7500 -116.2500 Du        
   6350 ****       235.7500 390.7500 -116.0000 Du        
   6351 ****       235.7500 390.7500 -115.7500 Du        
   6352 ****       235.7500 390.7500 -115.5000 Du        
   6353 ****       235.7500 391.0000 -119.0000 Du        
   6354 ****       235.7500 391.0000 -118.7500 Du        
   6355 ****       235.7500 391.0000 -118.5000 Du        
   6356 ****       235.7500 391.0000 -118.2500 Du        
   6357 ****       235.7500 391.0000 -118.0000 Du        
   6358 ****       235.7500 391.0000 -117.7500 Du        
   6359 ****       235.7500 391.0000 -117.5000 Du        
   6360 ****       235.7500 391.0000 -117.2500 Du        
   6361 ****       235.7500 391.0000 -117.0000 Du        
   6362 ****       235.7500 391.0000 -116.7500 Du        
   6363 ****       235.7500 391.0000 -116.5000 Du        
   6364 ****       235.7500 391.0000 -116.2500 Du        
   6365 ****       235.7500 391.0000 -116.0000 Du        
   6366 ****       235.7500 391.0000 -115.7500 Du        
   6367 ****       235.7500 391.0000 -115.5000 Du        
   6368 ****       235.7500 391.0000 -115.2500 Du        
   6369 ****       235.7500 391.2500 -119.0000 Du        
   6370 ****       235.7500 391.2500 -118.7500 Du        
   6371 ****       235.7500 391.2500 -118.5000 Du        
   6372 ****       235.7500 391.2500 -118.2500 Du        
   6373 ****       235.7500 391.2500 -118.0000 Du        
   6374 ****       235.7500 391.2500 -117.7500 Du        
   6375 ****       235.7500 391.2500 -117.5000 Du        
   6376 ****       235.7500 391.2500 -117.2500 Du        
   6377 ****       235.7500 391.2500 -117.0000 Du        
   6378 ****       235.7500 391.2500 -116.7500 Du        
   6379 ****       235.7500 391.2500 -116.5000 Du        
   6380 ****       235.7500 391.2500 -116.2500 Du        
   6381 ****       235.7500 391.2500 -116.0000 Du        
   6382 ****       235.7500 391.2500 -115.7500 Du        
   6383 ****       235.7500 391.2500 -115.5000 Du        
   6384 ****       235.7500 391.2500 -115.2500 Du        
   6385 ****       235.7500 391.5000 -118.7500 Du        
   6386 ****       235.7500 391.5000 -118.5000 Du        
   6387 ****       235.7500 391.5000 -118.2500 Du        
   6388 ****       235.7500 391.5000 -118.0000 Du        
   6389 ****       235.7500 391.5000 -117.7500 Du        
   6390 ****       235.7500 391.5000 -117.5000 Du        
   6391 ****       235.7500 391.5000 -117.2500 Du        
   6392 ****       235.7500 391.5000 -117.0000 Du        
   6393 ****       235.7500 391.5000 -116.7500 Du        
   6394 ****       235.7500 391.5000 -116.5000 Du        
   6395 ****       235.7500 391.5000 -116.2500 Du        
   6396 ****       235.7500 391.5000 -116.0000 Du        
   6397 ****       235.7500 391.5000 -115.7500 Du        
   6398 ****       235.7500 391.5000 -115.5000 Du        
   6399 ****       235.7500 391.5000 -115.2500 Du        
   6400 ****       235.7500 391.5000 -115.0000 Du        
   6401 ****       235.7500 391.7500 -118.5000 Du        
   6402 ****       235.7500 391.7500 -118.2500 Du        
   6403 ****       235.7500 391.7500 -118.0000 Du        
   6404 ****       235.7500 391.7500 -117.7500 Du        
   6405 ****       235.7500 391.7500 -117.5000 Du        
   6406 ****       235.7500 391.7500 -117.2500 Du        
   6407 ****       235.7500 391.7500 -117.0000 Du        
   6408 ****       235.7500 391.7500 -116.7500 Du        
   6409 ****       235.7500 391.7500 -116.5000 Du        
   6410 ****       235.7500 391.7500 -116.2500 Du        
   6411 ****       235.7500 391.7500 -116.0000 Du        
   6412 ****       235.7500 391.7500 -115.7500 Du        
   6413 ****       235.7500 391.7500 -115.5000 Du        
   6414 ****       235.7500 391.7500 -115.2500 Du        
   6415 ****       235.7500 391.7500 -115.0000 Du        
   6416 ****       235.7500 392.0000 -118.2500 Du        
   6417 ****       235.7500 392.0000 -118.0000 Du        
   6418 ****       235.7500 392.0000 -117.7500 Du        
   6419 ****       235.7500 392.0000 -117.5000 Du        
   6420 ****       235.7500 392.0000 -117.2500 Du        
   6421 ****       235.7500 392.0000 -117.0000 Du        
   6422 ****       235.7500 392.0000 -116.7500 Du        
   6423 ****       235.7500 392.0000 -116.5000 Du        
   6424 ****       235.7500 392.0000 -116.2500 Du        
   6425 ****       235.7500 392.0000 -116.0000 Du        
   6426 ****       235.7500 392.0000 -115.7500 Du        
   6427 ****       235.7500 392.0000 -115.5000 Du        
   6428 ****       235.7500 392.0000 -115.2500 Du        
   6429 ****       235.7500 392.2500 -118.0000 Du        
   6430 ****       235.7500 392.2500 -117.7500 Du        
   6431 ****       235.7500 392.2500 -117.5000 Du        
   6432 ****       235.7500 392.2500 -117.2500 Du        
   6433 ****       235.7500 392.2500 -117.0000 Du        
   6434 ****       235.7500 392.2500 -116.7500 Du        
   6435 ****       235.7500 392.2500 -116.5000 Du        
   6436 ****       235.7500 392.2500 -116.2500 Du        
   6437 ****       235.7500 392.2500 -116.0000 Du        
   6438 ****       235.7500 392.2500 -115.7500 Du        
   6439 ****       235.7500 392.2500 -115.5000 Du        
   6440 ****       235.7500 392.2500 -115.2500 Du        
   6441 ****       235.7500 392.5000 -117.7500 Du        
   6442 ****       235.7500 392.5000 -117.5000 Du        
   6443 ****       235.7500 392.5000 -117.2500 Du        
   6444 ****       235.7500 392.5000 -117.0000 Du        
   6445 ****       235.7500 392.5000 -116.7500 Du        
   6446 ****       235.7500 392.5000 -116.5000 Du        
   6447 ****       235.7500 392.5000 -116.2500 Du        
   6448 ****       235.7500 392.5000 -116.0000 Du        
   6449 ****       235.7500 392.5000 -115.7500 Du        
   6450 ****       235.7500 392.5000 -115.5000 Du        
   6451 ****       235.7500 392.5000 -115.2500 Du        
   6452 ****       235.7500 392.7500 -117.5000 Du        
   6453 ****       235.7500 392.7500 -117.2500 Du        
   6454 ****       235.7500 392.7500 -117.0000 Du        
   6455 ****       235.7500 392.7500 -116.7500 Du        
   6456 ****       235.7500 392.7500 -116.5000 Du        
   6457 ****       235.7500 392.7500 -116.2500 Du        
   6458 ****       235.7500 392.7500 -116.0000 Du        
   6459 ****       235.7500 392.7500 -115.7500 Du        
   6460 ****       235.7500 392.7500 -115.5000 Du        
   6461 ****       235.7500 392.7500 -115.2500 Du        
   6462 ****       235.7500 393.0000 -117.2500 Du        
   6463 ****       235.7500 393.0000 -117.0000 Du        
   6464 ****       235.7500 393.0000 -116.7500 Du        
   6465 ****       235.7500 393.0000 -116.5000 Du        
   6466 ****       235.7500 393.0000 -116.2500 Du        
   6467 ****       235.7500 393.0000 -116.0000 Du        
   6468 ****       235.7500 393.0000 -115.7500 Du        
   6469 ****       235.7500 393.0000 -115.5000 Du        
   6470 ****       235.7500 393.2500 -117.0000 Du        
   6471 ****       235.7500 393.2500 -116.7500 Du        
   6472 ****       235.7500 393.2500 -116.5000 Du        
   6473 ****       235.7500 393.2500 -116.2500 Du        
   6474 ****       235.7500 393.2500 -116.0000 Du        
   6475 ****       235.7500 393.2500 -115.7500 Du        
   6476 ****       235.7500 393.2500 -115.5000 Du        
   6477 ****       235.7500 393.5000 -116.5000 Du        
   6478 ****       235.7500 393.5000 -116.2500 Du        
   6479 ****       235.7500 393.5000 -116.0000 Du        
   6480 ****       235.7500 393.5000 -115.7500 Du        
   6481 ****       235.7500 393.7500 -116.2500 Du        
   6482 ****       235.7500 393.7500 -116.0000 Du        
   6483 ****       235.7500 393.7500 -115.7500 Du        
   6484 ****       236.0000 390.7500 -119.0000 Du        
   6485 ****       236.0000 390.7500 -118.7500 Du        
   6486 ****       236.0000 390.7500 -118.5000 Du        
   6487 ****       236.0000 390.7500 -118.2500 Du        
   6488 ****       236.0000 390.7500 -118.0000 Du        
   6489 ****       236.0000 390.7500 -116.2500 Du        
   6490 ****       236.0000 390.7500 -116.0000 Du        
   6491 ****       236.0000 390.7500 -115.7500 Du        
   6492 ****       236.0000 391.0000 -119.0000 Du        
   6493 ****       236.0000 391.0000 -118.7500 Du        
   6494 ****       236.0000 391.0000 -118.5000 Du        
   6495 ****       236.0000 391.0000 -118.2500 Du        
   6496 ****       236.0000 391.0000 -118.0000 Du        
   6497 ****       236.0000 391.0000 -117.7500 Du        
   6498 ****       236.0000 391.0000 -117.5000 Du        
   6499 ****       236.0000 391.0000 -117.2500 Du        
   6500 ****       236.0000 391.0000 -117.0000 Du        
   6501 ****       236.0000 391.0000 -116.7500 Du        
   6502 ****       236.0000 391.0000 -116.5000 Du        
   6503 ****       236.0000 391.0000 -116.2500 Du        
   6504 ****       236.0000 391.0000 -116.0000 Du        
   6505 ****       236.0000 391.0000 -115.7500 Du        
   6506 ****       236.0000 391.0000 -115.5000 Du        
   6507 ****       236.0000 391.2500 -119.0000 Du        
   6508 ****       236.0000 391.2500 -118.7500 Du        
   6509 ****       236.0000 391.2500 -118.5000 Du        
   6510 ****       236.0000 391.2500 -118.2500 Du        
   6511 ****       236.0000 391.2500 -118.0000 Du        
   6512 ****       236.0000 391.2500 -117.7500 Du        
   6513 ****       236.0000 391.2500 -117.5000 Du        
   6514 ****       236.0000 391.2500 -117.2500 Du        
   6515 ****       236.0000 391.2500 -117.0000 Du        
   6516 ****       236.0000 391.2500 -116.7500 Du        
   6517 ****       236.0000 391.2500 -116.5000 Du        
   6518 ****       236.0000 391.2500 -116.2500 Du        
   6519 ****       236.0000 391.2500 -116.0000 Du        
   6520 ****       236.0000 391.2500 -115.7500 Du        
   6521 ****       236.0000 391.2500 -115.5000 Du        
   6522 ****       236.0000 391.5000 -118.7500 Du        
   6523 ****       236.0000 391.5000 -118.5000 Du        
   6524 ****       236.0000 391.5000 -118.2500 Du        
   6525 ****       236.0000 391.5000 -118.0000 Du        
   6526 ****       236.0000 391.5000 -117.7500 Du        
   6527 ****       236.0000 391.5000 -117.5000 Du        
   6528 ****       236.0000 391.5000 -117.2500 Du        
   6529 ****       236.0000 391.5000 -117.0000 Du        
   6530 ****       236.0000 391.5000 -116.7500 Du        
   6531 ****       236.0000 391.5000 -116.5000 Du        
   6532 ****       236.0000 391.5000 -116.2500 Du        
   6533 ****       236.0000 391.5000 -116.0000 Du        
   6534 ****       236.0000 391.5000 -115.7500 Du        
   6535 ****       236.0000 391.5000 -115.5000 Du        
   6536 ****       236.0000 391.7500 -118.5000 Du        
   6537 ****       236.0000 391.7500 -118.2500 Du        
   6538 ****       236.0000 391.7500 -118.0000 Du        
   6539 ****       236.0000 391.7500 -117.7500 Du        
   6540 ****       236.0000 391.7500 -117.5000 Du        
   6541 ****       236.0000 391.7500 -117.2500 Du        
   6542 ****       236.0000 391.7500 -117.0000 Du        
   6543 ****       236.0000 391.7500 -116.7500 Du        
   6544 ****       236.0000 391.7500 -116.5000 Du        
   6545 ****       236.0000 391.7500 -116.2500 Du        
   6546 ****       236.0000 391.7500 -116.0000 Du        
   6547 ****       236.0000 391.7500 -115.7500 Du        
   6548 ****       236.0000 391.7500 -115.5000 Du        
   6549 ****       236.0000 391.7500 -115.2500 Du        
   6550 ****       236.0000 392.0000 -118.2500 Du        
   6551 ****       236.0000 392.0000 -118.0000 Du        
   6552 ****       236.0000 392.0000 -117.7500 Du        
   6553 ****       236.0000 392.0000 -117.5000 Du        
   6554 ****       236.0000 392.0000 -117.2500 Du        
   6555 ****       236.0000 392.0000 -117.0000 Du        
   6556 ****       236.0000 392.0000 -116.7500 Du        
   6557 ****       236.0000 392.0000 -116.5000 Du        
   6558 ****       236.0000 392.0000 -116.2500 Du        
   6559 ****       236.0000 392.0000 -116.0000 Du        
   6560 ****       236.0000 392.0000 -115.7500 Du        
   6561 ****       236.0000 392.0000 -115.5000 Du        
   6562 ****       236.0000 392.0000 -115.2500 Du        
   6563 ****       236.0000 392.2500 -118.2500 Du        
   6564 ****       236.0000 392.2500 -118.0000 Du        
   6565 ****       236.0000 392.2500 -117.7500 Du        
   6566 ****       236.0000 392.2500 -117.5000 Du        
   6567 ****       236.0000 392.2500 -117.2500 Du        
   6568 ****       236.0000 392.2500 -117.0000 Du        
   6569 ****       236.0000 392.2500 -116.7500 Du        
   6570 ****       236.0000 392.2500 -116.5000 Du        
   6571 ****       236.0000 392.2500 -116.2500 Du        
   6572 ****       236.0000 392.2500 -116.0000 Du        
   6573 ****       236.0000 392.2500 -115.7500 Du        
   6574 ****       236.0000 392.2500 -115.5000 Du        
   6575 ****       236.0000 392.2500 -115.2500 Du        
   6576 ****       236.0000 392.5000 -117.7500 Du        
   6577 ****       236.0000 392.5000 -117.5000 Du        
   6578 ****       236.0000 392.5000 -117.2500 Du        
   6579 ****       236.0000 392.5000 -117.0000 Du        
   6580 ****       236.0000 392.5000 -116.7500 Du        
   6581 ****       236.0000 392.5000 -116.5000 Du        
   6582 ****       236.0000 392.5000 -116.2500 Du        
   6583 ****       236.0000 392.5000 -116.0000 Du        
   6584 ****       236.0000 392.5000 -115.7500 Du        
   6585 ****       236.0000 392.5000 -115.5000 Du        
   6586 ****       236.0000 392.5000 -115.2500 Du        
   6587 ****       236.0000 392.7500 -117.5000 Du        
   6588 ****       236.0000 392.7500 -117.2500 Du        
   6589 ****       236.0000 392.7500 -117.0000 Du        
   6590 ****       236.0000 392.7500 -116.7500 Du        
   6591 ****       236.0000 392.7500 -116.5000 Du        
   6592 ****       236.0000 392.7500 -116.2500 Du        
   6593 ****       236.0000 392.7500 -116.0000 Du        
   6594 ****       236.0000 392.7500 -115.7500 Du        
   6595 ****       236.0000 392.7500 -115.5000 Du        
   6596 ****       236.0000 393.0000 -117.2500 Du        
   6597 ****       236.0000 393.0000 -117.0000 Du        
   6598 ****       236.0000 393.0000 -116.7500 Du        
   6599 ****       236.0000 393.0000 -116.5000 Du        
   6600 ****       236.0000 393.0000 -116.2500 Du        
   6601 ****       236.0000 393.0000 -116.0000 Du        
   6602 ****       236.0000 393.0000 -115.7500 Du        
   6603 ****       236.0000 393.0000 -115.5000 Du        
   6604 ****       236.0000 393.2500 -116.7500 Du        
   6605 ****       236.0000 393.2500 -116.5000 Du        
   6606 ****       236.0000 393.2500 -116.2500 Du        
   6607 ****       236.0000 393.2500 -116.0000 Du        
   6608 ****       236.0000 393.2500 -115.7500 Du        
   6609 ****       236.0000 393.2500 -115.5000 Du        
   6610 ****       236.0000 393.5000 -116.5000 Du        
   6611 ****       236.0000 393.5000 -116.2500 Du        
   6612 ****       236.0000 393.5000 -116.0000 Du        
   6613 ****       236.0000 393.5000 -115.7500 Du        
   6614 ****       236.0000 393.7500 -116.0000 Du        
   6615 ****       236.2500 391.2500 -118.5000 Du        
   6616 ****       236.2500 391.5000 -118.5000 Du        
   6617 ****       236.2500 391.5000 -118.2500 Du        
   6618 ****       236.2500 391.5000 -118.0000 Du        
   6619 ****       236.2500 391.5000 -117.7500 Du        
   6620 ****       236.2500 391.7500 -118.5000 Du        
   6621 ****       236.2500 391.7500 -118.2500 Du        
   6622 ****       236.2500 391.7500 -118.0000 Du        
   6623 ****       236.2500 391.7500 -117.7500 Du        
   6624 ****       236.2500 391.7500 -117.5000 Du        
   6625 ****       236.2500 391.7500 -117.2500 Du        
   6626 ****       236.2500 391.7500 -117.0000 Du        
   6627 ****       236.2500 391.7500 -116.7500 Du        
   6628 ****       236.2500 391.7500 -116.5000 Du        
   6629 ****       236.2500 391.7500 -116.2500 Du        
   6630 ****       236.2500 391.7500 -116.0000 Du        
   6631 ****       236.2500 392.0000 -118.2500 Du        
   6632 ****       236.2500 392.0000 -118.0000 Du        
   6633 ****       236.2500 392.0000 -117.7500 Du        
   6634 ****       236.2500 392.0000 -117.5000 Du        
   6635 ****       236.2500 392.0000 -117.2500 Du        
   6636 ****       236.2500 392.0000 -117.0000 Du        
   6637 ****       236.2500 392.0000 -116.7500 Du        
   6638 ****       236.2500 392.0000 -116.5000 Du        
   6639 ****       236.2500 392.0000 -116.2500 Du        
   6640 ****       236.2500 392.0000 -116.0000 Du        
   6641 ****       236.2500 392.2500 -118.2500 Du        
   6642 ****       236.2500 392.2500 -118.0000 Du        
   6643 ****       236.2500 392.2500 -117.7500 Du        
   6644 ****       236.2500 392.2500 -117.5000 Du        
   6645 ****       236.2500 392.2500 -117.2500 Du        
   6646 ****       236.2500 392.2500 -117.0000 Du        
   6647 ****       236.2500 392.2500 -116.7500 Du        
   6648 ****       236.2500 392.2500 -116.5000 Du        
   6649 ****       236.2500 392.2500 -116.2500 Du        
   6650 ****       236.2500 392.2500 -116.0000 Du        
   6651 ****       236.2500 392.2500 -115.7500 Du        
   6652 ****       236.2500 392.5000 -117.7500 Du        
   6653 ****       236.2500 392.5000 -117.5000 Du        
   6654 ****       236.2500 392.5000 -117.2500 Du        
   6655 ****       236.2500 392.5000 -117.0000 Du        
   6656 ****       236.2500 392.5000 -116.7500 Du        
   6657 ****       236.2500 392.5000 -116.5000 Du        
   6658 ****       236.2500 392.5000 -116.2500 Du        
   6659 ****       236.2500 392.5000 -116.0000 Du        
   6660 ****       236.2500 392.5000 -115.7500 Du        
   6661 ****       236.2500 392.7500 -117.5000 Du        
   6662 ****       236.2500 392.7500 -117.2500 Du        
   6663 ****       236.2500 392.7500 -117.0000 Du        
   6664 ****       236.2500 392.7500 -116.7500 Du        
   6665 ****       236.2500 392.7500 -116.5000 Du        
   6666 ****       236.2500 392.7500 -116.2500 Du        
   6667 ****       236.2500 392.7500 -116.0000 Du        
   6668 ****       236.2500 392.7500 -115.7500 Du        
   6669 ****       236.2500 393.0000 -117.0000 Du        
   6670 ****       236.2500 393.0000 -116.7500 Du        
   6671 ****       236.2500 393.0000 -116.5000 Du        
   6672 ****       236.2500 393.0000 -116.2500 Du        
   6673 ****       236.2500 393.0000 -116.0000 Du        
   6674 ****       236.2500 393.0000 -115.7500 Du        
   6675 ****       236.2500 393.2500 -116.7500 Du        
   6676 ****       236.2500 393.2500 -116.5000 Du        
   6677 ****       236.2500 393.2500 -116.2500 Du        
   6678 ****       236.2500 393.2500 -116.0000 Du        
   6679 ****       236.2500 393.2500 -115.7500 Du        
   6680 ****       236.2500 393.5000 -116.2500 Du        
   6681 ****       236.2500 393.5000 -116.0000 Du        
   6682 ****       236.2500 393.5000 -115.7500 Du        
   6683 ****       236.5000 392.7500 -116.7500 Du        
   6684 ****       236.5000 393.0000 -116.7500 Du        
   6685 ****       236.5000 393.0000 -116.5000 Du        
   6686 ****       236.5000 393.0000 -116.2500 Du        
   6687 ****       236.5000 393.2500 -116.2500 Du        
