#       Name:                CT1002167954
#       Creating user name   hitesit
#       Creation time:       Sun Apr 16 02:35:15 2023


#       File generated by GOLD software.
#

@<TRIPOS>MOLECULE
CT1002167954|ligand_prepared|mol2|1|dock4
    29    30     1
SMALL
NO_CHARGES


@<TRIPOS>ATOM
      1 C1         234.3947 390.7084 -115.9910 C.3            1 RES1               0.0000
      2 C2         233.6412 389.9687 -114.8668 C.ar           1 RES1               0.0000
      3 C3         233.6706 392.0367 -116.1901 C.2            1 RES1               0.0000
      4 C4         235.8365 390.8509 -115.5162 C.2            1 RES1               0.0000
      5 C5         234.4082 389.9496 -117.3384 C.3            1 RES1               0.0000
      6 C6         232.3277 389.5478 -115.0519 C.ar           1 RES1               0.0000
      7 C7         234.2462 389.6981 -113.6423 C.ar           1 RES1               0.0000
      8 N8         234.2811 393.1648 -115.7268 N.am           1 RES1               0.0000
      9 O9         232.5628 392.0890 -116.7101 O.2            1 RES1               0.0000
     10 N10        236.3100 392.1132 -115.2710 N.am           1 RES1               0.0000
     11 O11        236.5617 389.8803 -115.3363 O.2            1 RES1               0.0000
     12 C12        235.2644 390.6117 -118.4064 C.3            1 RES1               0.0000
     13 C13        231.6447 388.8780 -114.0503 C.ar           1 RES1               0.0000
     14 C14        233.5612 389.0284 -112.6419 C.ar           1 RES1               0.0000
     15 C15        235.5882 393.2744 -115.3253 C.2            1 RES1               0.0000
     16 C16        232.2610 388.6175 -112.8449 C.ar           1 RES1               0.0000
     17 O17        236.0701 394.3662 -115.0375 O.2            1 RES1               0.0000
     18 H18        234.7813 388.9324 -117.1671 H              1 RES1               0.0000
     19 H19        233.3789 389.8710 -117.7097 H              1 RES1               0.0000
     20 H20        231.8255 389.7461 -115.9929 H              1 RES1               0.0000
     21 H21        235.2681 390.0129 -113.4598 H              1 RES1               0.0000
     22 H22        233.7134 394.0045 -115.6741 H              1 RES1               0.0000
     23 H23        237.2915 392.1948 -115.0253 H              1 RES1               0.0000
     24 H24        235.2389 390.0390 -119.3311 H              1 RES1               0.0000
     25 H25        234.9059 391.6165 -118.6201 H              1 RES1               0.0000
     26 H26        236.3001 390.6834 -118.0807 H              1 RES1               0.0000
     27 H27        230.6210 388.5580 -114.2146 H              1 RES1               0.0000
     28 H28        234.0500 388.8260 -111.6946 H              1 RES1               0.0000
     29 H29        231.7258 388.0925 -112.0606 H              1 RES1               0.0000
@<TRIPOS>BOND
    1    1    2 1     
    2    1    3 1     
    3    1    4 1     
    4    1    5 1     
    5    2    6 ar    
    6    2    7 ar    
    7    3    8 1     
    8    3    9 2     
    9    4   10 1     
   10    4   11 2     
   11    5   12 1     
   12    5   18 1     
   13    5   19 1     
   14    6   13 ar    
   15    6   20 1     
   16    7   14 ar    
   17    7   21 1     
   18    8   15 1     
   19    8   22 1     
   20   10   15 1     
   21   10   23 1     
   22   12   24 1     
   23   12   25 1     
   24   12   26 1     
   25   13   16 ar    
   26   13   27 1     
   27   14   16 ar    
   28   14   28 1     
   29   15   17 2     
   30   16   29 1     
@<TRIPOS>SUBSTRUCTURE
      1 RES1           1
@<TRIPOS>SET
DONOR_HYDROGENS      STATIC     ATOMS    <user>   **** ""
2 22 23
ATOM$RED        STATIC     ATOMS    COLORGROUP SYSTEM
2 22 23
@<TRIPOS>COMMENT
> <Gold.Version>
2022.3.0

> <Gold.Id.Protein>
unknown|7ts3_clean|pdb

> <Gold.Protein.RotatedTorsions>
[ 17136 17116 17117 17118 ] final -126.28 input   42.97 | X-H torsion
[ 17196 17162 17163 17164 ] final -140.41 input  102.93 | X-H torsion
[ 18266 18253 18254 18255 ] final   44.35 input   38.47 | X-H torsion
[ 18355 18311 18312 18313 ] final   -2.78 input   32.37 | X-H torsion
[ 18440 18401 18402 18403 ] final  -99.12 input  104.02 | X-H torsion
[ 18448 18412 18411 18409 ] final   60.15 input   60.03 | X-H torsion
[ 18508 18473 18474 18475 ] final  100.13 input   98.64 | X-H torsion
[ 18655 18628 18629 18630 ] final -167.50 input  122.95 | X-H torsion
[ 7402 7386 7387 7388 ] final  -73.25 input  101.82 | X-H torsion
[ 7448 7441 7442 7443 ] final  -41.87 input   81.00 | X-H torsion
[ 18236 18215 18216 18217 ] final  -66.27 input   34.45 | X-H torsion
[ 18542 18529 18530 18531 ] final   66.90 input  116.11 | X-H torsion
[ 10056 10030 10029 10026 ] final -121.70 input   60.02 | X-H torsion
[ 18240 18220 18219 18216 ] final  -89.19 input   59.98 | X-H torsion
[ 18188 18150 18151 18152 ] final   49.80 input   43.88 | X-H torsion
[ 17244 17223 17224 17225 ] final   89.17 input   49.67 | X-H torsion
[ 10092 10072 10073 10074 ] final  -60.97 input   21.26 | X-H torsion
[ 16940 16904 16903 16901 ] final   35.03 input   59.97 | X-H torsion
[ 11376 11356 11355 11352 ] final  -96.37 input   60.02 | X-H torsion
[ 11437 11404 11405 11406 ] final  -35.48 input   53.40 | X-H torsion
[ 26042 26007 26006 26004 ] final  161.73 input   59.98 | X-H torsion
[ 17299 17273 17274 17275 ] final  -66.36 input   71.10 | X-H torsion
[ 17364 17329 17330 17331 ] final  -96.72 input   83.79 | X-H torsion
[ 26034 25996 25997 25998 ] final  -44.91 input  104.01 | X-H torsion
[ 18726 18685 18686 18687 ] final -153.85 input   93.05 | X-H torsion
[ 22392 22358 22359 22360 ] final  122.13 input   47.29 | X-H torsion
[ 27272 17069 17068 17067 ] final -122.43 input   -0.00 | X-H torsion
[ 27276 18153 18152 18151 ] final -103.86 input   -0.00 | X-H torsion
[ 27279 18256 18255 18254 ] final   -7.39 input   -0.00 | X-H torsion
[ 27282 18314 18313 18312 ] final -177.00 input    0.00 | X-H torsion
[ 27285 18404 18403 18402 ] final -130.92 input   -0.00 | X-H torsion
[ 27290 18476 18475 18474 ] final  124.98 input   -0.00 | X-H torsion
[ 27304 18218 18217 18216 ] final   83.46 input   -0.00 | X-H torsion
[ 27306 16956 16955 16954 ] final -161.62 input   -0.00 | X-H torsion
[ 27311 16996 16995 16994 ] final  -76.07 input    0.00 | X-H torsion
[ 27315 17119 17118 17117 ] final  -97.65 input    0.00 | X-H torsion
[ 27317 17165 17164 17163 ] final -160.15 input    0.00 | X-H torsion
[ 27322 10075 10074 10073 ] final    7.50 input   -0.00 | X-H torsion
[ 27324 11354 11353 11352 ] final   74.22 input    0.00 | X-H torsion
[ 27338 7265 7264 7263 ] final   14.56 input   -0.00 | X-H torsion
[ 27345 2414 2413 2412 ] final   11.98 input    0.00 | X-H torsion
[ 27348 17276 17275 17274 ] final  128.78 input   -0.00 | X-H torsion

> <Gold.Protein.ActiveResidues>
 MET341  HIS342  TRP414  ARG419  CYS420  VAL421  GLY422  LEU429  LEU460  SER462 
 ALA463  ILE464  SER482  GLN483  ARG486  TYR567  GLY568  LEU569  PRO570  ALA571 
 VAL572  SER573  ASN574  MET575  PRO588  PHE589  SER590  GLY591  TRP592  TYR593 
 MET594  GLY595  GLU597  ILE598  ARG601  ASP602  ARG608  ILE653  VAL654  TRP683 
 PHE709  TYR711  HEM801  H4B802 

> <Gold.Protein.RotatedAtoms>
  240.3656  385.2663 -114.5454 H   0  0  0  0  0  0  0  0  0  0  0  0  # atno 7402 bound_to 7386
  242.0224  386.0475 -116.3421 H   0  0  0  0  0  0  0  0  0  0  0  0  # atno 7448 bound_to 7441
  241.5493  395.1601 -118.1830 H   0  0  0  0  0  0  0  0  0  0  0  0  # atno 10056 bound_to 10030
  240.4050  398.6457 -116.4368 H   0  0  0  0  0  0  0  0  0  0  0  0  # atno 10092 bound_to 10072
  223.0417  393.5987 -112.9037 H   0  0  0  0  0  0  0  0  0  0  0  0  # atno 11376 bound_to 11356
  225.6543  396.2397 -113.0581 H   0  0  0  0  0  0  0  0  0  0  0  0  # atno 11437 bound_to 11404
  226.8993  393.3931 -119.3508 H   0  0  0  0  0  0  0  0  0  0  0  0  # atno 16940 bound_to 16904
  232.3394  395.2793 -118.0827 H   0  0  0  0  0  0  0  0  0  0  0  0  # atno 17136 bound_to 17116
  231.4252  395.2121 -115.2992 H   0  0  0  0  0  0  0  0  0  0  0  0  # atno 17196 bound_to 17162
  229.2044  396.0768 -112.1937 H   0  0  0  0  0  0  0  0  0  0  0  0  # atno 17244 bound_to 17223
  229.6375  396.6958 -109.0755 H   0  0  0  0  0  0  0  0  0  0  0  0  # atno 17299 bound_to 17273
  229.4982  395.0571 -106.8654 H   0  0  0  0  0  0  0  0  0  0  0  0  # atno 17364 bound_to 17329
  233.8359  397.6548 -112.2625 H   0  0  0  0  0  0  0  0  0  0  0  0  # atno 18188 bound_to 18150
  236.5229  396.8219 -114.7348 H   0  0  0  0  0  0  0  0  0  0  0  0  # atno 18236 bound_to 18215
  236.1181  399.8163 -117.1138 H   0  0  0  0  0  0  0  0  0  0  0  0  # atno 18240 bound_to 18220
  236.0651  395.1227 -118.4208 H   0  0  0  0  0  0  0  0  0  0  0  0  # atno 18266 bound_to 18253
  237.6049  392.9090 -120.3494 H   0  0  0  0  0  0  0  0  0  0  0  0  # atno 18355 bound_to 18311
  235.9777  391.8972 -122.3473 H   0  0  0  0  0  0  0  0  0  0  0  0  # atno 18440 bound_to 18401
  228.1696  391.7941 -121.7306 H   0  0  0  0  0  0  0  0  0  0  0  0  # atno 18448 bound_to 18412
  235.5127  388.0203 -121.9858 H   0  0  0  0  0  0  0  0  0  0  0  0  # atno 18508 bound_to 18473
  235.2643  384.8027 -125.1919 H   0  0  0  0  0  0  0  0  0  0  0  0  # atno 18542 bound_to 18529
  232.2155  383.9323 -122.3043 H   0  0  0  0  0  0  0  0  0  0  0  0  # atno 18655 bound_to 18628
  229.6099  386.5783 -122.8313 H   0  0  0  0  0  0  0  0  0  0  0  0  # atno 18726 bound_to 18685
  238.2525  389.0635 -126.1009 H   0  0  0  0  0  0  0  0  0  0  0  0  # atno 22392 bound_to 22358
  232.6074  390.8623 -102.7978 H   0  0  0  0  0  0  0  0  0  0  0  0  # atno 26034 bound_to 25996
  230.5834  386.3953 -108.7037 H   0  0  0  0  0  0  0  0  0  0  0  0  # atno 26042 bound_to 26007
  234.1474  395.0454 -117.4299 LP  0  0  0  0  0  0  0  0  0  0  0  0  # atno 27272 bound_to 17069
  234.2678  395.7925 -118.9879 LP  0  0  0  0  0  0  0  0  0  0  0  0  # atno 27273 bound_to 17069
  230.6442  395.6499 -117.8459 LP  0  0  0  0  0  0  0  0  0  0  0  0  # atno 27274 bound_to 17116
  232.6028  396.0815 -114.3402 LP  0  0  0  0  0  0  0  0  0  0  0  0  # atno 27275 bound_to 17162
  234.3231  395.7034 -114.5242 LP  0  0  0  0  0  0  0  0  0  0  0  0  # atno 27276 bound_to 18153
  233.4301  397.1830 -114.6397 LP  0  0  0  0  0  0  0  0  0  0  0  0  # atno 27277 bound_to 18153
  237.1355  396.3212 -117.7209 LP  0  0  0  0  0  0  0  0  0  0  0  0  # atno 27278 bound_to 18253
  236.8265  396.6459 -120.7175 LP  0  0  0  0  0  0  0  0  0  0  0  0  # atno 27279 bound_to 18256
  236.7279  395.6649 -122.1415 LP  0  0  0  0  0  0  0  0  0  0  0  0  # atno 27280 bound_to 18256
  237.9912  394.5100 -120.9284 LP  0  0  0  0  0  0  0  0  0  0  0  0  # atno 27281 bound_to 18311
  236.6704  390.1002 -121.4978 LP  0  0  0  0  0  0  0  0  0  0  0  0  # atno 27282 bound_to 18314
  237.6150  391.3745 -120.8022 LP  0  0  0  0  0  0  0  0  0  0  0  0  # atno 27283 bound_to 18314
  235.5689  392.0438 -124.0399 LP  0  0  0  0  0  0  0  0  0  0  0  0  # atno 27284 bound_to 18401
  236.4698  388.5984 -125.4074 LP  0  0  0  0  0  0  0  0  0  0  0  0  # atno 27285 bound_to 18404
  237.0848  390.0657 -124.7229 LP  0  0  0  0  0  0  0  0  0  0  0  0  # atno 27286 bound_to 18404
  229.0742  392.6750 -120.7042 LP  0  0  0  0  0  0  0  0  0  0  0  0  # atno 27287 bound_to 18412
  228.7768  391.1005 -120.3897 LP  0  0  0  0  0  0  0  0  0  0  0  0  # atno 27288 bound_to 18412
  235.7303  388.8126 -123.5303 LP  0  0  0  0  0  0  0  0  0  0  0  0  # atno 27289 bound_to 18473
  232.8127  387.0729 -124.3277 LP  0  0  0  0  0  0  0  0  0  0  0  0  # atno 27290 bound_to 18476
  233.2777  386.3139 -122.8418 LP  0  0  0  0  0  0  0  0  0  0  0  0  # atno 27291 bound_to 18476
  231.1930  384.4414 -123.6233 LP  0  0  0  0  0  0  0  0  0  0  0  0  # atno 27292 bound_to 18628
  239.0608  384.9066 -115.6487 LP  0  0  0  0  0  0  0  0  0  0  0  0  # atno 27301 bound_to 7386
  240.4999  386.5672 -117.0170 LP  0  0  0  0  0  0  0  0  0  0  0  0  # atno 27302 bound_to 7441
  236.1315  398.4516 -115.2233 LP  0  0  0  0  0  0  0  0  0  0  0  0  # atno 27303 bound_to 18215
  238.7139  396.5031 -116.2620 LP  0  0  0  0  0  0  0  0  0  0  0  0  # atno 27304 bound_to 18218
  238.7090  397.6451 -117.5642 LP  0  0  0  0  0  0  0  0  0  0  0  0  # atno 27305 bound_to 18218
  233.3556  395.0720 -123.6795 LP  0  0  0  0  0  0  0  0  0  0  0  0  # atno 27306 bound_to 16956
  233.5816  395.0267 -125.3961 LP  0  0  0  0  0  0  0  0  0  0  0  0  # atno 27307 bound_to 16956
  234.9284  386.5106 -125.0713 LP  0  0  0  0  0  0  0  0  0  0  0  0  # atno 27308 bound_to 18529
  242.8003  395.7529 -119.0383 LP  0  0  0  0  0  0  0  0  0  0  0  0  # atno 27309 bound_to 10030
  241.2673  396.0985 -119.4822 LP  0  0  0  0  0  0  0  0  0  0  0  0  # atno 27310 bound_to 10030
  230.5540  397.3398 -120.2519 LP  0  0  0  0  0  0  0  0  0  0  0  0  # atno 27311 bound_to 16996
  229.7536  396.0075 -121.0162 LP  0  0  0  0  0  0  0  0  0  0  0  0  # atno 27312 bound_to 16996
  235.9423  399.5969 -118.7167 LP  0  0  0  0  0  0  0  0  0  0  0  0  # atno 27313 bound_to 18220
  237.0807  398.7624 -117.8955 LP  0  0  0  0  0  0  0  0  0  0  0  0  # atno 27314 bound_to 18220
  229.8489  397.4907 -114.5433 LP  0  0  0  0  0  0  0  0  0  0  0  0  # atno 27315 bound_to 17119
  229.2671  396.2214 -115.5682 LP  0  0  0  0  0  0  0  0  0  0  0  0  # atno 27316 bound_to 17119
  232.2207  397.2622 -111.0382 LP  0  0  0  0  0  0  0  0  0  0  0  0  # atno 27317 bound_to 17165
  232.9323  396.7358 -112.5270 LP  0  0  0  0  0  0  0  0  0  0  0  0  # atno 27318 bound_to 17165
  234.3987  399.2990 -112.0616 LP  0  0  0  0  0  0  0  0  0  0  0  0  # atno 27319 bound_to 18150
  230.8080  395.8536 -111.5396 LP  0  0  0  0  0  0  0  0  0  0  0  0  # atno 27320 bound_to 17223
  239.6976  399.6005 -117.7139 LP  0  0  0  0  0  0  0  0  0  0  0  0  # atno 27321 bound_to 10072
  238.2810  398.8046 -115.5399 LP  0  0  0  0  0  0  0  0  0  0  0  0  # atno 27322 bound_to 10075
  237.6396  399.2888 -114.0055 LP  0  0  0  0  0  0  0  0  0  0  0  0  # atno 27323 bound_to 10075
  227.9336  394.0370 -111.9632 LP  0  0  0  0  0  0  0  0  0  0  0  0  # atno 27324 bound_to 11354
  228.1901  395.7481 -111.8843 LP  0  0  0  0  0  0  0  0  0  0  0  0  # atno 27325 bound_to 11354
  226.7316  392.1230 -120.3542 LP  0  0  0  0  0  0  0  0  0  0  0  0  # atno 27328 bound_to 16904
  225.4195  392.9720 -119.8807 LP  0  0  0  0  0  0  0  0  0  0  0  0  # atno 27329 bound_to 16904
  224.1400  392.4638 -113.2937 LP  0  0  0  0  0  0  0  0  0  0  0  0  # atno 27333 bound_to 11356
  224.4361  394.0367 -113.6180 LP  0  0  0  0  0  0  0  0  0  0  0  0  # atno 27334 bound_to 11356
  225.9232  394.6170 -113.6523 LP  0  0  0  0  0  0  0  0  0  0  0  0  # atno 27335 bound_to 11404
  231.1057  385.1635 -107.7780 LP  0  0  0  0  0  0  0  0  0  0  0  0  # atno 27336 bound_to 26007
  232.1380  386.3467 -108.2262 LP  0  0  0  0  0  0  0  0  0  0  0  0  # atno 27337 bound_to 26007
  236.6318  383.5358 -112.6717 LP  0  0  0  0  0  0  0  0  0  0  0  0  # atno 27338 bound_to 7265
  237.6892  384.3024 -113.8094 LP  0  0  0  0  0  0  0  0  0  0  0  0  # atno 27339 bound_to 7265
  228.6309  395.5073 -109.8634 LP  0  0  0  0  0  0  0  0  0  0  0  0  # atno 27343 bound_to 17273
  230.8668  395.4237 -107.8779 LP  0  0  0  0  0  0  0  0  0  0  0  0  # atno 27344 bound_to 17329
  230.7566  382.1492 -105.9223 LP  0  0  0  0  0  0  0  0  0  0  0  0  # atno 27345 bound_to 2414
  230.6576  382.7801 -104.3123 LP  0  0  0  0  0  0  0  0  0  0  0  0  # atno 27346 bound_to 2414
  232.3759  389.2293 -103.3741 LP  0  0  0  0  0  0  0  0  0  0  0  0  # atno 27347 bound_to 25996
  229.0000  393.6581 -105.4235 LP  0  0  0  0  0  0  0  0  0  0  0  0  # atno 27348 bound_to 17276
  228.1788  395.1521 -105.1176 LP  0  0  0  0  0  0  0  0  0  0  0  0  # atno 27349 bound_to 17276

> <Gold.Score>
     Fitness  S(hb_ext) S(vdw_ext)  S(hb_int)    S(int)      intcor
     48.95       0.00      37.44       0.00      -2.53      -0.76

> <Gold.Goldscore.Fitness>
48.9512

> <Gold.Goldscore.Internal.Vdw>
-2.8710

> <Gold.Goldscore.Internal.Torsion>
-0.4161

> <Gold.Goldscore.External.Vdw>
37.4376

> <Gold.Goldscore.Internal.HBond>
0.0000

> <Gold.Goldscore.External.HBond>
0.0000

> <Gold.Goldscore.Internal.Correction>
-0.7617

> <Gold.Goldscore.Internal.Vdw.Weighted>
-2.8710

> <Gold.Goldscore.Internal.Torsion.Weighted>
-0.4161

> <Gold.Goldscore.External.Vdw.Weighted>
51.4767

> <Gold.Goldscore.Internal.HBond.Weighted>
0.0000

> <Gold.Goldscore.External.HBond.Weighted>
0.0000

> <Gold.Goldscore.Internal.Correction.Weighted>
-0.7617

> <Gold.Rescore>
     Score     S(PLP)   S(hbond)     S(cho)   S(metal)  DE(clash)   DE(tors)     intcor
     22.28     -18.53       0.00       0.00       1.00       0.47       0.89       ----

> <Gold.PLP.Fitness>
22.2794

> <Gold.PLP.PLP>
-18.5311

> <Gold.PLP.part.hbond>
-2.9014

> <Gold.PLP.part.metal>
-1.0000

> <Gold.PLP.part.buried>
16.0028

> <Gold.PLP.part.nonpolar>
-46.7670

> <Gold.PLP.part.repulsive>
10.6031

> <Gold.PLP.ligand.clash>
0.4684

> <Gold.PLP.ligand.torsion>
0.8916

> <Gold.PLP.Chemscore.Hbond>
0.0000

> <Gold.PLP.Chemscore.CHOScore>
0.0000

> <Gold.PLP.Chemscore.Metal>
1.0000

> <Gold.Chemscore.Hbonds>
donor molecule, donor type, donor heavy atom, donor atom, acceptor molecule, acceptor atom, score
      P1  M 26969 26969       L1    11  1.00

> <Gold.PLP.Chemscore.Internal.Correction>
   9.000000E+99

