#       Name:                CT1002167954
#       Creating user name   hitesit
#       Creation time:       Sun Apr 16 02:35:17 2023


#       File generated by GOLD software.
#

@<TRIPOS>MOLECULE
CT1002167954|ligand_prepared|mol2|1|dock6
    29    30     1
SMALL
NO_CHARGES


@<TRIPOS>ATOM
      1 C1         234.5660 390.8200 -116.3096 C.3            1 RES1               0.0000
      2 C2         233.0366 390.7962 -116.5076 C.ar           1 RES1               0.0000
      3 C3         235.1595 390.0120 -117.4599 C.2            1 RES1               0.0000
      4 C4         234.9730 392.2893 -116.3063 C.2            1 RES1               0.0000
      5 C5         235.0332 390.1919 -114.9759 C.3            1 RES1               0.0000
      6 C6         232.3291 389.6011 -116.4190 C.ar           1 RES1               0.0000
      7 C7         232.3204 391.9596 -116.7763 C.ar           1 RES1               0.0000
      8 N8         235.7841 390.6995 -118.4586 N.am           1 RES1               0.0000
      9 O9         235.0467 388.7934 -117.5099 O.2            1 RES1               0.0000
     10 N10        235.7624 392.7392 -117.3321 N.am           1 RES1               0.0000
     11 O11        234.6035 393.0653 -115.4337 O.2            1 RES1               0.0000
     12 C12        234.1265 390.5103 -113.7974 C.3            1 RES1               0.0000
     13 C13        230.9550 389.5705 -116.5899 C.ar           1 RES1               0.0000
     14 C14        230.9463 391.9267 -116.9471 C.ar           1 RES1               0.0000
     15 C15        236.1610 392.0180 -118.4245 C.2            1 RES1               0.0000
     16 C16        230.2627 390.7331 -116.8536 C.ar           1 RES1               0.0000
     17 O17        236.8250 392.5077 -119.3335 O.2            1 RES1               0.0000
     18 H18        235.0849 389.1029 -115.0974 H              1 RES1               0.0000
     19 H19        236.0444 390.5526 -114.7508 H              1 RES1               0.0000
     20 H20        232.8572 388.6757 -116.2146 H              1 RES1               0.0000
     21 H21        232.8375 392.9099 -116.8554 H              1 RES1               0.0000
     22 H22        235.9899 390.1857 -119.3094 H              1 RES1               0.0000
     23 H23        236.0826 393.7008 -117.2762 H              1 RES1               0.0000
     24 H24        234.4997 390.0457 -112.8871 H              1 RES1               0.0000
     25 H25        234.0719 391.5843 -113.6319 H              1 RES1               0.0000
     26 H26        233.1180 390.1432 -113.9764 H              1 RES1               0.0000
     27 H27        230.4218 388.6284 -116.5167 H              1 RES1               0.0000
     28 H28        230.4056 392.8441 -117.1551 H              1 RES1               0.0000
     29 H29        229.1862 390.7089 -116.9870 H              1 RES1               0.0000
@<TRIPOS>BOND
    1    1    2 1     
    2    1    3 1     
    3    1    4 1     
    4    1    5 1     
    5    2    6 ar    
    6    2    7 ar    
    7    3    8 1     
    8    3    9 2     
    9    4   10 1     
   10    4   11 2     
   11    5   12 1     
   12    5   18 1     
   13    5   19 1     
   14    6   13 ar    
   15    6   20 1     
   16    7   14 ar    
   17    7   21 1     
   18    8   15 1     
   19    8   22 1     
   20   10   15 1     
   21   10   23 1     
   22   12   24 1     
   23   12   25 1     
   24   12   26 1     
   25   13   16 ar    
   26   13   27 1     
   27   14   16 ar    
   28   14   28 1     
   29   15   17 2     
   30   16   29 1     
@<TRIPOS>SUBSTRUCTURE
      1 RES1           1
@<TRIPOS>SET
DONOR_HYDROGENS      STATIC     ATOMS    <user>   **** ""
2 22 23
ATOM$RED        STATIC     ATOMS    COLORGROUP SYSTEM
2 22 23
@<TRIPOS>COMMENT
> <Gold.Version>
2022.3.0

> <Gold.Id.Protein>
unknown|7ts3_clean|pdb

> <Gold.Protein.RotatedTorsions>
[ 17136 17116 17117 17118 ] final  -28.31 input   42.97 | X-H torsion
[ 17196 17162 17163 17164 ] final  115.64 input  102.93 | X-H torsion
[ 18266 18253 18254 18255 ] final  -61.65 input   38.47 | X-H torsion
[ 18355 18311 18312 18313 ] final   52.89 input   32.37 | X-H torsion
[ 18440 18401 18402 18403 ] final   30.81 input  104.02 | X-H torsion
[ 18448 18412 18411 18409 ] final   34.65 input   60.03 | X-H torsion
[ 18508 18473 18474 18475 ] final -152.84 input   98.64 | X-H torsion
[ 18655 18628 18629 18630 ] final   86.19 input  122.95 | X-H torsion
[ 7402 7386 7387 7388 ] final  163.97 input  101.82 | X-H torsion
[ 7448 7441 7442 7443 ] final -144.45 input   81.00 | X-H torsion
[ 18236 18215 18216 18217 ] final  -42.26 input   34.45 | X-H torsion
[ 18542 18529 18530 18531 ] final  175.97 input  116.11 | X-H torsion
[ 10056 10030 10029 10026 ] final  -64.03 input   60.02 | X-H torsion
[ 18240 18220 18219 18216 ] final -169.76 input   59.98 | X-H torsion
[ 18188 18150 18151 18152 ] final   64.36 input   43.88 | X-H torsion
[ 17244 17223 17224 17225 ] final   60.47 input   49.67 | X-H torsion
[ 10092 10072 10073 10074 ] final   78.33 input   21.26 | X-H torsion
[ 16940 16904 16903 16901 ] final -111.72 input   59.97 | X-H torsion
[ 11376 11356 11355 11352 ] final  -36.64 input   60.02 | X-H torsion
[ 11437 11404 11405 11406 ] final  -43.47 input   53.40 | X-H torsion
[ 26042 26007 26006 26004 ] final  108.07 input   59.98 | X-H torsion
[ 17299 17273 17274 17275 ] final -147.76 input   71.10 | X-H torsion
[ 17364 17329 17330 17331 ] final  124.90 input   83.79 | X-H torsion
[ 26034 25996 25997 25998 ] final   19.86 input  104.01 | X-H torsion
[ 18726 18685 18686 18687 ] final   82.77 input   93.05 | X-H torsion
[ 22392 22358 22359 22360 ] final  117.95 input   47.29 | X-H torsion
[ 27272 17069 17068 17067 ] final  -14.86 input   -0.00 | X-H torsion
[ 27276 18153 18152 18151 ] final  -24.85 input   -0.00 | X-H torsion
[ 27279 18256 18255 18254 ] final  112.06 input   -0.00 | X-H torsion
[ 27282 18314 18313 18312 ] final  -83.81 input    0.00 | X-H torsion
[ 27285 18404 18403 18402 ] final -128.06 input   -0.00 | X-H torsion
[ 27290 18476 18475 18474 ] final -149.80 input   -0.00 | X-H torsion
[ 27304 18218 18217 18216 ] final  -20.12 input   -0.00 | X-H torsion
[ 27306 16956 16955 16954 ] final -138.72 input   -0.00 | X-H torsion
[ 27311 16996 16995 16994 ] final   10.97 input    0.00 | X-H torsion
[ 27315 17119 17118 17117 ] final  -93.12 input    0.00 | X-H torsion
[ 27317 17165 17164 17163 ] final   23.42 input    0.00 | X-H torsion
[ 27322 10075 10074 10073 ] final  129.06 input   -0.00 | X-H torsion
[ 27324 11354 11353 11352 ] final -142.03 input    0.00 | X-H torsion
[ 27338 7265 7264 7263 ] final -159.13 input   -0.00 | X-H torsion
[ 27345 2414 2413 2412 ] final  -36.94 input    0.00 | X-H torsion
[ 27348 17276 17275 17274 ] final   -4.00 input   -0.00 | X-H torsion

> <Gold.Protein.ActiveResidues>
 MET341  HIS342  TRP414  ARG419  CYS420  VAL421  GLY422  LEU429  LEU460  SER462 
 ALA463  ILE464  SER482  GLN483  ARG486  TYR567  GLY568  LEU569  PRO570  ALA571 
 VAL572  SER573  ASN574  MET575  PRO588  PHE589  SER590  GLY591  TRP592  TYR593 
 MET594  GLY595  GLU597  ILE598  ARG601  ASP602  ARG608  ILE653  VAL654  TRP683 
 PHE709  TYR711  HEM801  H4B802 

> <Gold.Protein.RotatedAtoms>
  239.2652  384.3229 -115.0856 H   0  0  0  0  0  0  0  0  0  0  0  0  # atno 7402 bound_to 7386
  241.1766  385.7972 -117.3909 H   0  0  0  0  0  0  0  0  0  0  0  0  # atno 7448 bound_to 7441
  240.9566  395.5651 -118.7309 H   0  0  0  0  0  0  0  0  0  0  0  0  # atno 10056 bound_to 10030
  239.2567  399.3272 -117.3991 H   0  0  0  0  0  0  0  0  0  0  0  0  # atno 10092 bound_to 10072
  223.5995  394.2621 -113.2455 H   0  0  0  0  0  0  0  0  0  0  0  0  # atno 11376 bound_to 11356
  225.7404  396.2136 -112.9734 H   0  0  0  0  0  0  0  0  0  0  0  0  # atno 11437 bound_to 11404
  226.3061  392.0955 -120.4385 H   0  0  0  0  0  0  0  0  0  0  0  0  # atno 16940 bound_to 16904
  231.2959  394.8380 -117.3581 H   0  0  0  0  0  0  0  0  0  0  0  0  # atno 17136 bound_to 17116
  232.6752  395.0630 -114.6867 H   0  0  0  0  0  0  0  0  0  0  0  0  # atno 17196 bound_to 17162
  229.1443  395.8206 -111.8448 H   0  0  0  0  0  0  0  0  0  0  0  0  # atno 17244 bound_to 17223
  228.6085  396.7984 -109.5739 H   0  0  0  0  0  0  0  0  0  0  0  0  # atno 17299 bound_to 17273
  230.6127  394.8833 -108.0414 H   0  0  0  0  0  0  0  0  0  0  0  0  # atno 17364 bound_to 17329
  233.9464  397.6237 -112.0692 H   0  0  0  0  0  0  0  0  0  0  0  0  # atno 18188 bound_to 18150
  236.8453  396.9439 -114.8586 H   0  0  0  0  0  0  0  0  0  0  0  0  # atno 18236 bound_to 18215
  235.6921  399.9333 -118.2410 H   0  0  0  0  0  0  0  0  0  0  0  0  # atno 18240 bound_to 18220
  236.5608  396.4503 -118.5968 H   0  0  0  0  0  0  0  0  0  0  0  0  # atno 18266 bound_to 18253
  238.3247  393.0155 -120.7322 H   0  0  0  0  0  0  0  0  0  0  0  0  # atno 18355 bound_to 18311
  236.2197  391.7134 -123.9201 H   0  0  0  0  0  0  0  0  0  0  0  0  # atno 18440 bound_to 18401
  228.2922  392.1888 -121.7316 H   0  0  0  0  0  0  0  0  0  0  0  0  # atno 18448 bound_to 18412
  236.4919  388.5836 -122.8593 H   0  0  0  0  0  0  0  0  0  0  0  0  # atno 18508 bound_to 18473
  235.5177  386.0837 -125.7751 H   0  0  0  0  0  0  0  0  0  0  0  0  # atno 18542 bound_to 18529
  232.0336  384.9474 -123.2598 H   0  0  0  0  0  0  0  0  0  0  0  0  # atno 18655 bound_to 18628
  230.2570  385.9597 -124.1136 H   0  0  0  0  0  0  0  0  0  0  0  0  # atno 18726 bound_to 18685
  238.2085  389.0274 -126.0701 H   0  0  0  0  0  0  0  0  0  0  0  0  # atno 22392 bound_to 22358
  232.4345  390.1388 -102.2139 H   0  0  0  0  0  0  0  0  0  0  0  0  # atno 26034 bound_to 25996
  230.3881  385.6759 -108.3061 H   0  0  0  0  0  0  0  0  0  0  0  0  # atno 26042 bound_to 26007
  234.3442  394.7914 -118.7899 LP  0  0  0  0  0  0  0  0  0  0  0  0  # atno 27272 bound_to 17069
  234.0710  396.0464 -117.6279 LP  0  0  0  0  0  0  0  0  0  0  0  0  # atno 27273 bound_to 17069
  231.6510  396.0757 -118.5451 LP  0  0  0  0  0  0  0  0  0  0  0  0  # atno 27274 bound_to 17116
  231.3912  396.2260 -114.9339 LP  0  0  0  0  0  0  0  0  0  0  0  0  # atno 27275 bound_to 17162
  233.8757  396.3162 -113.7253 LP  0  0  0  0  0  0  0  0  0  0  0  0  # atno 27276 bound_to 18153
  233.8775  396.5702 -115.4386 LP  0  0  0  0  0  0  0  0  0  0  0  0  # atno 27277 bound_to 18153
  236.6596  395.0465 -117.5520 LP  0  0  0  0  0  0  0  0  0  0  0  0  # atno 27278 bound_to 18253
  237.4361  396.1532 -121.9915 LP  0  0  0  0  0  0  0  0  0  0  0  0  # atno 27279 bound_to 18256
  236.1182  396.1576 -120.8675 LP  0  0  0  0  0  0  0  0  0  0  0  0  # atno 27280 bound_to 18256
  237.2837  394.4052 -120.5521 LP  0  0  0  0  0  0  0  0  0  0  0  0  # atno 27281 bound_to 18311
  237.8162  390.5898 -121.6741 LP  0  0  0  0  0  0  0  0  0  0  0  0  # atno 27282 bound_to 18314
  236.4693  390.8848 -120.6258 LP  0  0  0  0  0  0  0  0  0  0  0  0  # atno 27283 bound_to 18314
  235.3325  392.2234 -122.5036 LP  0  0  0  0  0  0  0  0  0  0  0  0  # atno 27284 bound_to 18401
  236.4385  388.6215 -125.4263 LP  0  0  0  0  0  0  0  0  0  0  0  0  # atno 27285 bound_to 18404
  237.1160  390.0426 -124.7040 LP  0  0  0  0  0  0  0  0  0  0  0  0  # atno 27286 bound_to 18404
  229.1873  392.4228 -120.3930 LP  0  0  0  0  0  0  0  0  0  0  0  0  # atno 27287 bound_to 18412
  228.5403  390.9552 -120.6999 LP  0  0  0  0  0  0  0  0  0  0  0  0  # atno 27288 bound_to 18412
  234.7806  388.2662 -122.6831 LP  0  0  0  0  0  0  0  0  0  0  0  0  # atno 27289 bound_to 18473
  232.6947  385.9781 -123.9246 LP  0  0  0  0  0  0  0  0  0  0  0  0  # atno 27290 bound_to 18476
  233.3958  387.4087 -123.2449 LP  0  0  0  0  0  0  0  0  0  0  0  0  # atno 27291 bound_to 18476
  231.3724  383.4401 -122.6809 LP  0  0  0  0  0  0  0  0  0  0  0  0  # atno 27292 bound_to 18628
  240.1414  385.8330 -115.1183 LP  0  0  0  0  0  0  0  0  0  0  0  0  # atno 27301 bound_to 7386
  241.3344  386.8142 -115.9822 LP  0  0  0  0  0  0  0  0  0  0  0  0  # atno 27302 bound_to 7441
  235.8148  398.3318 -115.1018 LP  0  0  0  0  0  0  0  0  0  0  0  0  # atno 27303 bound_to 18215
  238.3384  397.7751 -116.5674 LP  0  0  0  0  0  0  0  0  0  0  0  0  # atno 27304 bound_to 18218
  239.0844  396.3731 -117.2588 LP  0  0  0  0  0  0  0  0  0  0  0  0  # atno 27305 bound_to 18218
  233.1867  394.7845 -123.7630 LP  0  0  0  0  0  0  0  0  0  0  0  0  # atno 27306 bound_to 16956
  233.7505  395.3141 -125.3126 LP  0  0  0  0  0  0  0  0  0  0  0  0  # atno 27307 bound_to 16956
  234.6781  385.2459 -124.4956 LP  0  0  0  0  0  0  0  0  0  0  0  0  # atno 27308 bound_to 18529
  242.5046  395.2531 -118.3383 LP  0  0  0  0  0  0  0  0  0  0  0  0  # atno 27309 bound_to 10030
  242.1598  396.1904 -119.6303 LP  0  0  0  0  0  0  0  0  0  0  0  0  # atno 27310 bound_to 10030
  230.0106  397.2025 -121.3048 LP  0  0  0  0  0  0  0  0  0  0  0  0  # atno 27311 bound_to 16996
  230.2970  396.1448 -119.9633 LP  0  0  0  0  0  0  0  0  0  0  0  0  # atno 27312 bound_to 16996
  236.8568  398.8239 -118.4878 LP  0  0  0  0  0  0  0  0  0  0  0  0  # atno 27313 bound_to 18220
  236.5950  399.4176 -116.9893 LP  0  0  0  0  0  0  0  0  0  0  0  0  # atno 27314 bound_to 18220
  229.8552  397.5294 -114.5994 LP  0  0  0  0  0  0  0  0  0  0  0  0  # atno 27315 bound_to 17119
  229.2608  396.1827 -115.5122 LP  0  0  0  0  0  0  0  0  0  0  0  0  # atno 27316 bound_to 17119
  232.9118  396.7799 -112.5504 LP  0  0  0  0  0  0  0  0  0  0  0  0  # atno 27317 bound_to 17165
  232.2411  397.2181 -111.0148 LP  0  0  0  0  0  0  0  0  0  0  0  0  # atno 27318 bound_to 17165
  234.2914  399.3292 -112.2494 LP  0  0  0  0  0  0  0  0  0  0  0  0  # atno 27319 bound_to 18150
  230.8669  396.1049 -111.8817 LP  0  0  0  0  0  0  0  0  0  0  0  0  # atno 27320 bound_to 17223
  240.8314  398.9277 -116.7638 LP  0  0  0  0  0  0  0  0  0  0  0  0  # atno 27321 bound_to 10072
  238.2766  398.7335 -114.0299 LP  0  0  0  0  0  0  0  0  0  0  0  0  # atno 27322 bound_to 10075
  237.6439  399.3600 -115.5155 LP  0  0  0  0  0  0  0  0  0  0  0  0  # atno 27323 bound_to 10075
  228.3199  395.5818 -112.3802 LP  0  0  0  0  0  0  0  0  0  0  0  0  # atno 27324 bound_to 11354
  227.8038  394.2033 -111.4673 LP  0  0  0  0  0  0  0  0  0  0  0  0  # atno 27325 bound_to 11354
  225.5637  393.2874 -119.6163 LP  0  0  0  0  0  0  0  0  0  0  0  0  # atno 27328 bound_to 16904
  227.1848  393.1143 -119.5232 LP  0  0  0  0  0  0  0  0  0  0  0  0  # atno 27329 bound_to 16904
  223.3073  392.6940 -112.9262 LP  0  0  0  0  0  0  0  0  0  0  0  0  # atno 27333 bound_to 11356
  224.7067  393.1379 -113.6410 LP  0  0  0  0  0  0  0  0  0  0  0  0  # atno 27334 bound_to 11356
  225.8395  394.6423 -113.7346 LP  0  0  0  0  0  0  0  0  0  0  0  0  # atno 27335 bound_to 11404
  231.8996  385.4684 -107.7408 LP  0  0  0  0  0  0  0  0  0  0  0  0  # atno 27336 bound_to 26007
  231.5410  386.7667 -108.6640 LP  0  0  0  0  0  0  0  0  0  0  0  0  # atno 27337 bound_to 26007
  237.7292  384.2167 -113.8219 LP  0  0  0  0  0  0  0  0  0  0  0  0  # atno 27338 bound_to 7265
  236.5918  383.6215 -112.6592 LP  0  0  0  0  0  0  0  0  0  0  0  0  # atno 27339 bound_to 7265
  229.6424  395.4065 -109.3734 LP  0  0  0  0  0  0  0  0  0  0  0  0  # atno 27343 bound_to 17273
  229.7548  395.5970 -106.7045 LP  0  0  0  0  0  0  0  0  0  0  0  0  # atno 27344 bound_to 17329
  231.1150  381.7683 -105.4315 LP  0  0  0  0  0  0  0  0  0  0  0  0  # atno 27345 bound_to 2414
  230.2992  383.1610 -104.8031 LP  0  0  0  0  0  0  0  0  0  0  0  0  # atno 27346 bound_to 2414
  232.5451  389.9377 -103.9458 LP  0  0  0  0  0  0  0  0  0  0  0  0  # atno 27347 bound_to 25996
  227.7990  394.6943 -105.4746 LP  0  0  0  0  0  0  0  0  0  0  0  0  # atno 27348 bound_to 17276
  229.3798  394.1160 -105.0665 LP  0  0  0  0  0  0  0  0  0  0  0  0  # atno 27349 bound_to 17276

> <Gold.Score>
     Fitness  S(hb_ext) S(vdw_ext)  S(hb_int)    S(int)      intcor
     47.53       0.83      37.12       0.00      -4.35      -0.76

> <Gold.Goldscore.Fitness>
47.5255

> <Gold.Goldscore.Internal.Vdw>
-4.1006

> <Gold.Goldscore.Internal.Torsion>
-1.0084

> <Gold.Goldscore.External.Vdw>
37.1189

> <Gold.Goldscore.Internal.HBond>
0.0000

> <Gold.Goldscore.External.HBond>
0.8344

> <Gold.Goldscore.Internal.Correction>
-0.7617

> <Gold.Goldscore.Hbonds>
donor molecule, donor type, donor heavy atom, donor atom, acceptor molecule, acceptor atom, score
      P1  H 17162 17196       L1    11  0.12
      L1  H    10    23       P1 18253  0.10

> <Gold.Goldscore.Internal.Vdw.Weighted>
-4.1006

> <Gold.Goldscore.Internal.Torsion.Weighted>
-1.0084

> <Gold.Goldscore.External.Vdw.Weighted>
51.0384

> <Gold.Goldscore.Internal.HBond.Weighted>
0.0000

> <Gold.Goldscore.External.HBond.Weighted>
0.8344

> <Gold.Goldscore.Internal.Correction.Weighted>
-0.7617

> <Gold.Rescore>
     Score     S(PLP)   S(hbond)     S(cho)   S(metal)  DE(clash)   DE(tors)     intcor
     33.29     -31.94       1.32       0.00       0.00       1.17       0.73       ----

> <Gold.PLP.Fitness>
33.2892

> <Gold.PLP.PLP>
-31.9391

> <Gold.PLP.part.hbond>
-3.6945

> <Gold.PLP.part.metal>
0.0000

> <Gold.PLP.part.buried>
16.4212

> <Gold.PLP.part.nonpolar>
-47.3522

> <Gold.PLP.part.repulsive>
1.5496

> <Gold.PLP.ligand.clash>
1.1729

> <Gold.PLP.ligand.torsion>
0.7252

> <Gold.PLP.Chemscore.Hbond>
1.3245

> <Gold.PLP.Chemscore.CHOScore>
0.0000

> <Gold.PLP.Chemscore.Metal>
0.0000

> <Gold.Chemscore.Hbonds>
donor molecule, donor type, donor heavy atom, donor atom, acceptor molecule, acceptor atom, score
      L1  H    10    23       P1 18253  0.43

> <Gold.PLP.Chemscore.Internal.Correction>
   9.000000E+99

