#       Name:                CT1002167954
#       Creating user name   hitesit
#       Creation time:       Sun Apr 16 02:35:19 2023


#       File generated by GOLD software.
#

@<TRIPOS>MOLECULE
CT1002167954|ligand_prepared|mol2|1|dock9
    29    30     1
SMALL
NO_CHARGES


@<TRIPOS>ATOM
      1 C1         228.3278 386.9287 -113.8876 C.3            1 RES1               0.0000
      2 C2         229.6003 387.6699 -113.4291 C.ar           1 RES1               0.0000
      3 C3         228.2363 387.1284 -115.3976 C.2            1 RES1               0.0000
      4 C4         228.5039 385.4753 -113.4618 C.2            1 RES1               0.0000
      5 C5         227.0275 387.4615 -113.2420 C.3            1 RES1               0.0000
      6 C6         229.9055 387.7835 -112.0761 C.ar           1 RES1               0.0000
      7 C7         230.4783 388.2420 -114.3458 C.ar           1 RES1               0.0000
      8 N8         228.5360 386.0634 -116.1950 N.am           1 RES1               0.0000
      9 O9         227.9441 388.2148 -115.8819 O.2            1 RES1               0.0000
     10 N10        228.6131 384.5269 -114.4449 N.am           1 RES1               0.0000
     11 O11        228.5658 385.1449 -112.2840 O.2            1 RES1               0.0000
     12 C12        225.7791 386.7002 -113.6594 C.3            1 RES1               0.0000
     13 C13        231.0485 388.4424 -111.6548 C.ar           1 RES1               0.0000
     14 C14        231.6208 388.9007 -113.9224 C.ar           1 RES1               0.0000
     15 C15        228.6679 384.7588 -115.7923 C.2            1 RES1               0.0000
     16 C16        231.9071 389.0010 -112.5775 C.ar           1 RES1               0.0000
     17 O17        228.8222 383.8582 -116.6122 O.2            1 RES1               0.0000
     18 H18        227.1266 387.4061 -112.1509 H              1 RES1               0.0000
     19 H19        226.9049 388.5171 -113.5143 H              1 RES1               0.0000
     20 H20        229.2404 387.3523 -111.3352 H              1 RES1               0.0000
     21 H21        230.2728 388.1763 -115.4088 H              1 RES1               0.0000
     22 H22        228.6749 386.2547 -117.1822 H              1 RES1               0.0000
     23 H23        228.6574 383.5584 -114.1444 H              1 RES1               0.0000
     24 H24        224.8957 387.1146 -113.1782 H              1 RES1               0.0000
     25 H25        225.6357 386.7556 -114.7365 H              1 RES1               0.0000
     26 H26        225.8561 385.6512 -113.3812 H              1 RES1               0.0000
     27 H27        231.2686 388.5198 -110.5951 H              1 RES1               0.0000
     28 H28        232.2934 389.3394 -114.6520 H              1 RES1               0.0000
     29 H29        232.8027 389.5169 -112.2472 H              1 RES1               0.0000
@<TRIPOS>BOND
    1    1    2 1     
    2    1    3 1     
    3    1    4 1     
    4    1    5 1     
    5    2    6 ar    
    6    2    7 ar    
    7    3    8 1     
    8    3    9 2     
    9    4   10 1     
   10    4   11 2     
   11    5   12 1     
   12    5   18 1     
   13    5   19 1     
   14    6   13 ar    
   15    6   20 1     
   16    7   14 ar    
   17    7   21 1     
   18    8   15 1     
   19    8   22 1     
   20   10   15 1     
   21   10   23 1     
   22   12   24 1     
   23   12   25 1     
   24   12   26 1     
   25   13   16 ar    
   26   13   27 1     
   27   14   16 ar    
   28   14   28 1     
   29   15   17 2     
   30   16   29 1     
@<TRIPOS>SUBSTRUCTURE
      1 RES1           1
@<TRIPOS>SET
DONOR_HYDROGENS      STATIC     ATOMS    <user>   **** ""
2 22 23
ATOM$RED        STATIC     ATOMS    COLORGROUP SYSTEM
2 22 23
@<TRIPOS>COMMENT
> <Gold.Version>
2022.3.0

> <Gold.Id.Protein>
unknown|7ts3_clean|pdb

> <Gold.Protein.RotatedTorsions>
[ 17136 17116 17117 17118 ] final -144.71 input   42.97 | X-H torsion
[ 17196 17162 17163 17164 ] final  148.02 input  102.93 | X-H torsion
[ 18266 18253 18254 18255 ] final  140.81 input   38.47 | X-H torsion
[ 18355 18311 18312 18313 ] final   65.89 input   32.37 | X-H torsion
[ 18440 18401 18402 18403 ] final -105.65 input  104.02 | X-H torsion
[ 18448 18412 18411 18409 ] final -111.59 input   60.03 | X-H torsion
[ 18508 18473 18474 18475 ] final  -21.01 input   98.64 | X-H torsion
[ 18655 18628 18629 18630 ] final   34.23 input  122.95 | X-H torsion
[ 7402 7386 7387 7388 ] final  -22.98 input  101.82 | X-H torsion
[ 7448 7441 7442 7443 ] final  -67.23 input   81.00 | X-H torsion
[ 18236 18215 18216 18217 ] final  -78.42 input   34.45 | X-H torsion
[ 18542 18529 18530 18531 ] final -132.99 input  116.11 | X-H torsion
[ 10056 10030 10029 10026 ] final  134.17 input   60.02 | X-H torsion
[ 18240 18220 18219 18216 ] final -101.99 input   59.98 | X-H torsion
[ 18188 18150 18151 18152 ] final -129.31 input   43.88 | X-H torsion
[ 17244 17223 17224 17225 ] final  102.46 input   49.67 | X-H torsion
[ 10092 10072 10073 10074 ] final  161.68 input   21.26 | X-H torsion
[ 16940 16904 16903 16901 ] final  101.13 input   59.97 | X-H torsion
[ 11376 11356 11355 11352 ] final  169.11 input   60.02 | X-H torsion
[ 11437 11404 11405 11406 ] final  149.88 input   53.40 | X-H torsion
[ 26042 26007 26006 26004 ] final  169.39 input   59.98 | X-H torsion
[ 17299 17273 17274 17275 ] final   41.03 input   71.10 | X-H torsion
[ 17364 17329 17330 17331 ] final -107.74 input   83.79 | X-H torsion
[ 26034 25996 25997 25998 ] final  -55.72 input  104.01 | X-H torsion
[ 18726 18685 18686 18687 ] final  103.80 input   93.05 | X-H torsion
[ 22392 22358 22359 22360 ] final  115.81 input   47.29 | X-H torsion
[ 27272 17069 17068 17067 ] final -121.32 input   -0.00 | X-H torsion
[ 27276 18153 18152 18151 ] final  107.88 input   -0.00 | X-H torsion
[ 27279 18256 18255 18254 ] final -104.46 input   -0.00 | X-H torsion
[ 27282 18314 18313 18312 ] final   47.43 input    0.00 | X-H torsion
[ 27285 18404 18403 18402 ] final  -59.76 input   -0.00 | X-H torsion
[ 27290 18476 18475 18474 ] final  -70.86 input   -0.00 | X-H torsion
[ 27304 18218 18217 18216 ] final  -37.16 input   -0.00 | X-H torsion
[ 27306 16956 16955 16954 ] final -132.68 input   -0.00 | X-H torsion
[ 27311 16996 16995 16994 ] final  -52.23 input    0.00 | X-H torsion
[ 27315 17119 17118 17117 ] final -133.75 input    0.00 | X-H torsion
[ 27317 17165 17164 17163 ] final -160.58 input    0.00 | X-H torsion
[ 27322 10075 10074 10073 ] final  -24.56 input   -0.00 | X-H torsion
[ 27324 11354 11353 11352 ] final  149.93 input    0.00 | X-H torsion
[ 27338 7265 7264 7263 ] final  131.54 input   -0.00 | X-H torsion
[ 27345 2414 2413 2412 ] final  -63.89 input    0.00 | X-H torsion
[ 27348 17276 17275 17274 ] final  -63.87 input   -0.00 | X-H torsion

> <Gold.Protein.ActiveResidues>
 MET341  HIS342  TRP414  ARG419  CYS420  VAL421  GLY422  LEU429  LEU460  SER462 
 ALA463  ILE464  SER482  GLN483  ARG486  TYR567  GLY568  LEU569  PRO570  ALA571 
 VAL572  SER573  ASN574  MET575  PRO588  PHE589  SER590  GLY591  TRP592  TYR593 
 MET594  GLY595  GLU597  ILE598  ARG601  ASP602  ARG608  ILE653  VAL654  TRP683 
 PHE709  TYR711  HEM801  H4B802 

> <Gold.Protein.RotatedAtoms>
  240.2048  385.8089 -115.0352 H   0  0  0  0  0  0  0  0  0  0  0  0  # atno 7402 bound_to 7386
  241.9879  385.8245 -116.6546 H   0  0  0  0  0  0  0  0  0  0  0  0  # atno 7448 bound_to 7441
  242.8024  395.6031 -118.8263 H   0  0  0  0  0  0  0  0  0  0  0  0  # atno 10056 bound_to 10030
  240.3308  399.6336 -117.7378 H   0  0  0  0  0  0  0  0  0  0  0  0  # atno 10092 bound_to 10072
  223.7675  392.4506 -113.1131 H   0  0  0  0  0  0  0  0  0  0  0  0  # atno 11376 bound_to 11356
  225.9930  394.5903 -113.6086 H   0  0  0  0  0  0  0  0  0  0  0  0  # atno 11437 bound_to 11404
  225.8858  393.5042 -119.4067 H   0  0  0  0  0  0  0  0  0  0  0  0  # atno 16940 bound_to 16904
  232.3159  395.5017 -118.2603 H   0  0  0  0  0  0  0  0  0  0  0  0  # atno 17136 bound_to 17116
  232.3327  394.8342 -114.9621 H   0  0  0  0  0  0  0  0  0  0  0  0  # atno 17196 bound_to 17162
  229.3024  396.1899 -112.3324 H   0  0  0  0  0  0  0  0  0  0  0  0  # atno 17244 bound_to 17223
  229.5562  395.3272 -109.4396 H   0  0  0  0  0  0  0  0  0  0  0  0  # atno 17299 bound_to 17273
  229.4910  394.9153 -106.9541 H   0  0  0  0  0  0  0  0  0  0  0  0  # atno 17364 bound_to 17329
  234.4118  399.3231 -112.0773 H   0  0  0  0  0  0  0  0  0  0  0  0  # atno 18188 bound_to 18150
  236.3427  396.8141 -114.6873 H   0  0  0  0  0  0  0  0  0  0  0  0  # atno 18236 bound_to 18215
  235.9800  399.9117 -117.2378 H   0  0  0  0  0  0  0  0  0  0  0  0  # atno 18240 bound_to 18220
  236.9096  395.2230 -117.3935 H   0  0  0  0  0  0  0  0  0  0  0  0  # atno 18266 bound_to 18253
  238.4451  393.1458 -120.8231 H   0  0  0  0  0  0  0  0  0  0  0  0  # atno 18355 bound_to 18311
  235.8898  391.9424 -122.3281 H   0  0  0  0  0  0  0  0  0  0  0  0  # atno 18440 bound_to 18401
  229.1967  392.0470 -120.1917 H   0  0  0  0  0  0  0  0  0  0  0  0  # atno 18448 bound_to 18412
  234.9347  388.5706 -123.3110 H   0  0  0  0  0  0  0  0  0  0  0  0  # atno 18508 bound_to 18473
  235.1151  386.5218 -125.3081 H   0  0  0  0  0  0  0  0  0  0  0  0  # atno 18542 bound_to 18529
  231.4106  384.6883 -123.6299 H   0  0  0  0  0  0  0  0  0  0  0  0  # atno 18655 bound_to 18628
  230.2819  386.2619 -123.9989 H   0  0  0  0  0  0  0  0  0  0  0  0  # atno 18726 bound_to 18685
  238.1854  389.0083 -126.0559 H   0  0  0  0  0  0  0  0  0  0  0  0  # atno 22392 bound_to 22358
  232.6271  390.8995 -102.9586 H   0  0  0  0  0  0  0  0  0  0  0  0  # atno 26034 bound_to 25996
  230.6684  386.4819 -108.7337 H   0  0  0  0  0  0  0  0  0  0  0  0  # atno 26042 bound_to 26007
  234.1498  395.0305 -117.4370 LP  0  0  0  0  0  0  0  0  0  0  0  0  # atno 27272 bound_to 17069
  234.2654  395.8074 -118.9807 LP  0  0  0  0  0  0  0  0  0  0  0  0  # atno 27273 bound_to 17069
  230.6668  395.4354 -117.6746 LP  0  0  0  0  0  0  0  0  0  0  0  0  # atno 27274 bound_to 17116
  231.7232  396.4478 -114.6669 LP  0  0  0  0  0  0  0  0  0  0  0  0  # atno 27275 bound_to 17162
  233.5430  397.0648 -115.0842 LP  0  0  0  0  0  0  0  0  0  0  0  0  # atno 27276 bound_to 18153
  234.2102  395.8216 -114.0797 LP  0  0  0  0  0  0  0  0  0  0  0  0  # atno 27277 bound_to 18153
  236.3247  396.2249 -118.7074 LP  0  0  0  0  0  0  0  0  0  0  0  0  # atno 27278 bound_to 18253
  235.9925  395.8227 -121.2757 LP  0  0  0  0  0  0  0  0  0  0  0  0  # atno 27279 bound_to 18256
  237.5618  396.4881 -121.5834 LP  0  0  0  0  0  0  0  0  0  0  0  0  # atno 27280 bound_to 18256
  237.1654  394.2772 -120.4628 LP  0  0  0  0  0  0  0  0  0  0  0  0  # atno 27281 bound_to 18311
  237.0262  391.3205 -120.5205 LP  0  0  0  0  0  0  0  0  0  0  0  0  # atno 27282 bound_to 18314
  237.2593  390.1541 -121.7795 LP  0  0  0  0  0  0  0  0  0  0  0  0  # atno 27283 bound_to 18314
  235.6548  391.9997 -124.0587 LP  0  0  0  0  0  0  0  0  0  0  0  0  # atno 27284 bound_to 18401
  236.0787  389.5173 -125.5423 LP  0  0  0  0  0  0  0  0  0  0  0  0  # atno 27285 bound_to 18404
  237.4758  389.1468 -124.5880 LP  0  0  0  0  0  0  0  0  0  0  0  0  # atno 27286 bound_to 18404
  228.3243  390.9890 -121.0677 LP  0  0  0  0  0  0  0  0  0  0  0  0  # atno 27287 bound_to 18412
  228.4923  392.5317 -121.5762 LP  0  0  0  0  0  0  0  0  0  0  0  0  # atno 27288 bound_to 18412
  236.2909  388.2789 -122.2451 LP  0  0  0  0  0  0  0  0  0  0  0  0  # atno 27289 bound_to 18473
  233.1782  386.1237 -122.9461 LP  0  0  0  0  0  0  0  0  0  0  0  0  # atno 27290 bound_to 18476
  232.9122  387.2630 -124.2234 LP  0  0  0  0  0  0  0  0  0  0  0  0  # atno 27291 bound_to 18476
  231.9868  383.6958 -122.3158 LP  0  0  0  0  0  0  0  0  0  0  0  0  # atno 27292 bound_to 18628
  239.2188  384.3738 -115.1677 LP  0  0  0  0  0  0  0  0  0  0  0  0  # atno 27301 bound_to 7386
  240.5340  386.7872 -116.7087 LP  0  0  0  0  0  0  0  0  0  0  0  0  # atno 27302 bound_to 7441
  236.3084  398.4593 -115.2700 LP  0  0  0  0  0  0  0  0  0  0  0  0  # atno 27303 bound_to 18215
  238.3805  397.8669 -116.8033 LP  0  0  0  0  0  0  0  0  0  0  0  0  # atno 27304 bound_to 18218
  239.0424  396.2814 -117.0229 LP  0  0  0  0  0  0  0  0  0  0  0  0  # atno 27305 bound_to 18218
  233.1485  394.7138 -123.8064 LP  0  0  0  0  0  0  0  0  0  0  0  0  # atno 27306 bound_to 16956
  233.7887  395.3848 -125.2692 LP  0  0  0  0  0  0  0  0  0  0  0  0  # atno 27307 bound_to 16956
  235.0756  384.8133 -124.9566 LP  0  0  0  0  0  0  0  0  0  0  0  0  # atno 27308 bound_to 18529
  241.4882  396.1766 -119.5956 LP  0  0  0  0  0  0  0  0  0  0  0  0  # atno 27309 bound_to 10030
  241.3172  395.2287 -118.2770 LP  0  0  0  0  0  0  0  0  0  0  0  0  # atno 27310 bound_to 10030
  230.4535  397.4831 -120.5640 LP  0  0  0  0  0  0  0  0  0  0  0  0  # atno 27311 bound_to 16996
  229.8541  395.8642 -120.7041 LP  0  0  0  0  0  0  0  0  0  0  0  0  # atno 27312 bound_to 16996
  236.0763  399.4564 -118.7972 LP  0  0  0  0  0  0  0  0  0  0  0  0  # atno 27313 bound_to 18220
  237.0857  398.8068 -117.6901 LP  0  0  0  0  0  0  0  0  0  0  0  0  # atno 27314 bound_to 18220
  229.7392  397.0652 -114.2351 LP  0  0  0  0  0  0  0  0  0  0  0  0  # atno 27315 bound_to 17119
  229.3769  396.6469 -115.8764 LP  0  0  0  0  0  0  0  0  0  0  0  0  # atno 27316 bound_to 17119
  232.2183  397.2675 -111.0412 LP  0  0  0  0  0  0  0  0  0  0  0  0  # atno 27317 bound_to 17165
  232.9347  396.7306 -112.5239 LP  0  0  0  0  0  0  0  0  0  0  0  0  # atno 27318 bound_to 17165
  233.8392  397.6783 -112.2415 LP  0  0  0  0  0  0  0  0  0  0  0  0  # atno 27319 bound_to 18150
  230.7118  395.7427 -111.4035 LP  0  0  0  0  0  0  0  0  0  0  0  0  # atno 27320 bound_to 17223
  239.7708  398.6251 -116.4293 LP  0  0  0  0  0  0  0  0  0  0  0  0  # atno 27321 bound_to 10072
  237.9305  399.1156 -115.6355 LP  0  0  0  0  0  0  0  0  0  0  0  0  # atno 27322 bound_to 10075
  237.9901  398.9778 -113.9099 LP  0  0  0  0  0  0  0  0  0  0  0  0  # atno 27323 bound_to 10075
  228.2836  394.6801 -112.7335 LP  0  0  0  0  0  0  0  0  0  0  0  0  # atno 27324 bound_to 11354
  227.8401  395.1049 -111.1140 LP  0  0  0  0  0  0  0  0  0  0  0  0  # atno 27325 bound_to 11354
  227.2883  392.7671 -119.7775 LP  0  0  0  0  0  0  0  0  0  0  0  0  # atno 27328 bound_to 16904
  225.8833  392.2160 -120.4010 LP  0  0  0  0  0  0  0  0  0  0  0  0  # atno 27329 bound_to 16904
  224.6556  393.6894 -113.6814 LP  0  0  0  0  0  0  0  0  0  0  0  0  # atno 27333 bound_to 11356
  223.1891  393.9682 -113.0193 LP  0  0  0  0  0  0  0  0  0  0  0  0  # atno 27334 bound_to 11356
  225.5940  396.2205 -113.1170 LP  0  0  0  0  0  0  0  0  0  0  0  0  # atno 27335 bound_to 11404
  230.9873  385.1746 -107.8192 LP  0  0  0  0  0  0  0  0  0  0  0  0  # atno 27336 bound_to 26007
  232.1708  386.2485 -108.1547 LP  0  0  0  0  0  0  0  0  0  0  0  0  # atno 27337 bound_to 26007
  237.0500  384.7684 -113.3692 LP  0  0  0  0  0  0  0  0  0  0  0  0  # atno 27338 bound_to 7265
  237.2710  383.0699 -113.1120 LP  0  0  0  0  0  0  0  0  0  0  0  0  # atno 27339 bound_to 7265
  228.7108  396.8528 -109.5055 LP  0  0  0  0  0  0  0  0  0  0  0  0  # atno 27343 bound_to 17273
  230.8740  395.5651 -107.7894 LP  0  0  0  0  0  0  0  0  0  0  0  0  # atno 27344 bound_to 17329
  231.2021  381.7585 -105.0376 LP  0  0  0  0  0  0  0  0  0  0  0  0  # atno 27345 bound_to 2414
  230.2121  383.1708 -105.1970 LP  0  0  0  0  0  0  0  0  0  0  0  0  # atno 27346 bound_to 2414
  232.3566  389.1929 -103.2167 LP  0  0  0  0  0  0  0  0  0  0  0  0  # atno 27347 bound_to 25996
  228.3414  395.1991 -105.0295 LP  0  0  0  0  0  0  0  0  0  0  0  0  # atno 27348 bound_to 17276
  228.8374  393.6112 -105.5116 LP  0  0  0  0  0  0  0  0  0  0  0  0  # atno 27349 bound_to 17276

> <Gold.Score>
     Fitness  S(hb_ext) S(vdw_ext)  S(hb_int)    S(int)      intcor
     29.43       6.00      18.62       0.00      -2.18      -0.76

> <Gold.Goldscore.Fitness>
29.4325

> <Gold.Goldscore.Internal.Vdw>
-2.5612

> <Gold.Goldscore.Internal.Torsion>
-0.3726

> <Gold.Goldscore.External.Vdw>
18.6238

> <Gold.Goldscore.Internal.HBond>
0.0000

> <Gold.Goldscore.External.HBond>
6.0000

> <Gold.Goldscore.Internal.Correction>
-0.7585

> <Gold.Goldscore.Hbonds>
donor molecule, donor type, donor heavy atom, donor atom, acceptor molecule, acceptor atom, score
      L1  H    10    23       P1 27163  1.00

> <Gold.Goldscore.Internal.Vdw.Weighted>
-2.5612

> <Gold.Goldscore.Internal.Torsion.Weighted>
-0.3726

> <Gold.Goldscore.External.Vdw.Weighted>
25.6078

> <Gold.Goldscore.Internal.HBond.Weighted>
0.0000

> <Gold.Goldscore.External.HBond.Weighted>
6.0000

> <Gold.Goldscore.Internal.Correction.Weighted>
-0.7585

> <Gold.Rescore>
     Score     S(PLP)   S(hbond)     S(cho)   S(metal)  DE(clash)   DE(tors)     intcor
     23.50     -21.91       1.00       0.00       0.00       1.38       0.02       ----

> <Gold.PLP.Fitness>
23.4960

> <Gold.PLP.PLP>
-21.9115

> <Gold.PLP.part.hbond>
-2.9165

> <Gold.PLP.part.metal>
0.0000

> <Gold.PLP.part.buried>
-0.9643

> <Gold.PLP.part.nonpolar>
-19.3239

> <Gold.PLP.part.repulsive>
0.4282

> <Gold.PLP.ligand.clash>
1.3758

> <Gold.PLP.ligand.torsion>
0.0199

> <Gold.PLP.Chemscore.Hbond>
1.0000

> <Gold.PLP.Chemscore.CHOScore>
0.0000

> <Gold.PLP.Chemscore.Metal>
0.0000

> <Gold.Chemscore.Hbonds>
donor molecule, donor type, donor heavy atom, donor atom, acceptor molecule, acceptor atom, score
      L1  H    10    23       P1 27163  1.00

> <Gold.PLP.Chemscore.Internal.Correction>
   9.000000E+99

