#       Name:                CT1002167954
#       Creating user name   hitesit
#       Creation time:       Sun Apr 16 02:35:14 2023


#       File generated by GOLD software.
#

@<TRIPOS>MOLECULE
CT1002167954|ligand_prepared|mol2|1|dock2
    29    30     1
SMALL
NO_CHARGES


@<TRIPOS>ATOM
      1 C1         229.5716 389.1615 -112.5874 C.3            1 RES1               0.0000
      2 C2         230.6159 389.4600 -113.6824 C.ar           1 RES1               0.0000
      3 C3         230.1947 388.1072 -111.6772 C.2            1 RES1               0.0000
      4 C4         229.2865 390.4902 -111.8962 C.2            1 RES1               0.0000
      5 C5         228.2338 388.6103 -113.1335 C.3            1 RES1               0.0000
      6 C6         230.2181 389.9162 -114.9356 C.ar           1 RES1               0.0000
      7 C7         231.9784 389.2870 -113.4539 C.ar           1 RES1               0.0000
      8 N8         230.6274 388.5097 -110.4481 N.am           1 RES1               0.0000
      9 O9         230.3401 386.9487 -112.0474 O.2            1 RES1               0.0000
     10 N10        229.6541 390.6226 -110.5827 N.am           1 RES1               0.0000
     11 O11        228.7620 391.4295 -112.4818 O.2            1 RES1               0.0000
     12 C12        227.3161 388.0515 -112.0576 C.3            1 RES1               0.0000
     13 C13        231.1487 390.1922 -115.9236 C.ar           1 RES1               0.0000
     14 C14        232.9074 389.5634 -114.4434 C.ar           1 RES1               0.0000
     15 C15        230.3394 389.7031 -109.8363 C.2            1 RES1               0.0000
     16 C16        232.4939 390.0164 -115.6780 C.ar           1 RES1               0.0000
     17 O17        230.6827 389.9165 -108.6770 O.2            1 RES1               0.0000
     18 H18        227.7092 389.4162 -113.6615 H              1 RES1               0.0000
     19 H19        228.4490 387.8176 -113.8606 H              1 RES1               0.0000
     20 H20        229.1637 390.0581 -115.1480 H              1 RES1               0.0000
     21 H21        232.3267 388.9305 -112.4904 H              1 RES1               0.0000
     22 H22        231.2201 387.8635 -109.9367 H              1 RES1               0.0000
     23 H23        229.3926 391.4865 -110.1185 H              1 RES1               0.0000
     24 H24        226.3922 387.6783 -112.4944 H              1 RES1               0.0000
     25 H25        227.7966 387.2310 -111.5287 H              1 RES1               0.0000
     26 H26        227.0611 388.8201 -111.3308 H              1 RES1               0.0000
     27 H27        230.8180 390.5472 -116.8940 H              1 RES1               0.0000
     28 H28        233.9651 389.4230 -114.2459 H              1 RES1               0.0000
     29 H29        233.2227 390.2331 -116.4520 H              1 RES1               0.0000
@<TRIPOS>BOND
    1    1    2 1     
    2    1    3 1     
    3    1    4 1     
    4    1    5 1     
    5    2    6 ar    
    6    2    7 ar    
    7    3    8 1     
    8    3    9 2     
    9    4   10 1     
   10    4   11 2     
   11    5   12 1     
   12    5   18 1     
   13    5   19 1     
   14    6   13 ar    
   15    6   20 1     
   16    7   14 ar    
   17    7   21 1     
   18    8   15 1     
   19    8   22 1     
   20   10   15 1     
   21   10   23 1     
   22   12   24 1     
   23   12   25 1     
   24   12   26 1     
   25   13   16 ar    
   26   13   27 1     
   27   14   16 ar    
   28   14   28 1     
   29   15   17 2     
   30   16   29 1     
@<TRIPOS>SUBSTRUCTURE
      1 RES1           1
@<TRIPOS>SET
DONOR_HYDROGENS      STATIC     ATOMS    <user>   **** ""
2 22 23
ATOM$RED        STATIC     ATOMS    COLORGROUP SYSTEM
2 22 23
@<TRIPOS>COMMENT
> <Gold.Version>
2022.3.0

> <Gold.Id.Protein>
unknown|7ts3_clean|pdb

> <Gold.Protein.RotatedTorsions>
[ 17136 17116 17117 17118 ] final  171.33 input   42.97 | X-H torsion
[ 17196 17162 17163 17164 ] final  174.87 input  102.93 | X-H torsion
[ 18266 18253 18254 18255 ] final  -48.69 input   38.47 | X-H torsion
[ 18355 18311 18312 18313 ] final  122.37 input   32.37 | X-H torsion
[ 18440 18401 18402 18403 ] final  109.48 input  104.02 | X-H torsion
[ 18448 18412 18411 18409 ] final    9.16 input   60.03 | X-H torsion
[ 18508 18473 18474 18475 ] final  148.56 input   98.64 | X-H torsion
[ 18655 18628 18629 18630 ] final   -0.45 input  122.95 | X-H torsion
[ 7402 7386 7387 7388 ] final -157.87 input  101.82 | X-H torsion
[ 7448 7441 7442 7443 ] final   10.35 input   81.00 | X-H torsion
[ 18236 18215 18216 18217 ] final  130.65 input   34.45 | X-H torsion
[ 18542 18529 18530 18531 ] final -156.94 input  116.11 | X-H torsion
[ 10056 10030 10029 10026 ] final    9.25 input   60.02 | X-H torsion
[ 18240 18220 18219 18216 ] final -153.00 input   59.98 | X-H torsion
[ 18188 18150 18151 18152 ] final   71.10 input   43.88 | X-H torsion
[ 17244 17223 17224 17225 ] final -111.52 input   49.67 | X-H torsion
[ 10092 10072 10073 10074 ] final  -64.20 input   21.26 | X-H torsion
[ 16940 16904 16903 16901 ] final  -55.08 input   59.97 | X-H torsion
[ 11376 11356 11355 11352 ] final -113.48 input   60.02 | X-H torsion
[ 11437 11404 11405 11406 ] final  179.31 input   53.40 | X-H torsion
[ 26042 26007 26006 26004 ] final  111.59 input   59.98 | X-H torsion
[ 17299 17273 17274 17275 ] final   40.28 input   71.10 | X-H torsion
[ 17364 17329 17330 17331 ] final  175.54 input   83.79 | X-H torsion
[ 26034 25996 25997 25998 ] final  156.60 input  104.01 | X-H torsion
[ 18726 18685 18686 18687 ] final  134.75 input   93.05 | X-H torsion
[ 22392 22358 22359 22360 ] final   53.76 input   47.29 | X-H torsion
[ 27272 17069 17068 17067 ] final -134.31 input   -0.00 | X-H torsion
[ 27276 18153 18152 18151 ] final   26.14 input   -0.00 | X-H torsion
[ 27279 18256 18255 18254 ] final   74.26 input   -0.00 | X-H torsion
[ 27282 18314 18313 18312 ] final -134.47 input    0.00 | X-H torsion
[ 27285 18404 18403 18402 ] final   82.31 input   -0.00 | X-H torsion
[ 27290 18476 18475 18474 ] final    2.32 input   -0.00 | X-H torsion
[ 27304 18218 18217 18216 ] final  -70.86 input   -0.00 | X-H torsion
[ 27306 16956 16955 16954 ] final   25.17 input   -0.00 | X-H torsion
[ 27311 16996 16995 16994 ] final  -22.33 input    0.00 | X-H torsion
[ 27315 17119 17118 17117 ] final  142.18 input    0.00 | X-H torsion
[ 27317 17165 17164 17163 ] final -139.39 input    0.00 | X-H torsion
[ 27322 10075 10074 10073 ] final -172.90 input   -0.00 | X-H torsion
[ 27324 11354 11353 11352 ] final  118.14 input    0.00 | X-H torsion
[ 27338 7265 7264 7263 ] final  103.76 input   -0.00 | X-H torsion
[ 27345 2414 2413 2412 ] final   91.03 input    0.00 | X-H torsion
[ 27348 17276 17275 17274 ] final   62.32 input   -0.00 | X-H torsion

> <Gold.Protein.ActiveResidues>
 MET341  HIS342  TRP414  ARG419  CYS420  VAL421  GLY422  LEU429  LEU460  SER462 
 ALA463  ILE464  SER482  GLN483  ARG486  TYR567  GLY568  LEU569  PRO570  ALA571 
 VAL572  SER573  ASN574  MET575  PRO588  PHE589  SER590  GLY591  TRP592  TYR593 
 MET594  GLY595  GLU597  ILE598  ARG601  ASP602  ARG608  ILE653  VAL654  TRP683 
 PHE709  TYR711  HEM801  H4B802 

> <Gold.Protein.RotatedAtoms>
  239.6685  384.3155 -114.6744 H   0  0  0  0  0  0  0  0  0  0  0  0  # atno 7402 bound_to 7386
  241.6516  386.6050 -115.9558 H   0  0  0  0  0  0  0  0  0  0  0  0  # atno 7448 bound_to 7441
  241.4189  396.1549 -119.5596 H   0  0  0  0  0  0  0  0  0  0  0  0  # atno 10056 bound_to 10030
  240.4496  398.6599 -116.4528 H   0  0  0  0  0  0  0  0  0  0  0  0  # atno 10092 bound_to 10072
  223.0285  393.3234 -112.8652 H   0  0  0  0  0  0  0  0  0  0  0  0  # atno 11376 bound_to 11356
  226.2593  394.6714 -113.2545 H   0  0  0  0  0  0  0  0  0  0  0  0  # atno 11437 bound_to 11404
  227.1028  392.3440 -120.1345 H   0  0  0  0  0  0  0  0  0  0  0  0  # atno 16940 bound_to 16904
  231.9359  395.9794 -118.5295 H   0  0  0  0  0  0  0  0  0  0  0  0  # atno 17136 bound_to 17116
  231.9689  394.8363 -115.1568 H   0  0  0  0  0  0  0  0  0  0  0  0  # atno 17196 bound_to 17162
  230.8887  396.0368 -111.7813 H   0  0  0  0  0  0  0  0  0  0  0  0  # atno 17244 bound_to 17223
  229.5648  395.3323 -109.4340 H   0  0  0  0  0  0  0  0  0  0  0  0  # atno 17299 bound_to 17273
  230.0454  394.4797 -107.7746 H   0  0  0  0  0  0  0  0  0  0  0  0  # atno 17364 bound_to 17329
  234.0020  397.6281 -111.9809 H   0  0  0  0  0  0  0  0  0  0  0  0  # atno 18188 bound_to 18150
  235.8939  398.3949 -115.1426 H   0  0  0  0  0  0  0  0  0  0  0  0  # atno 18236 bound_to 18215
  235.6780  400.0085 -117.9791 H   0  0  0  0  0  0  0  0  0  0  0  0  # atno 18240 bound_to 18220
  236.4282  396.3370 -118.6982 H   0  0  0  0  0  0  0  0  0  0  0  0  # atno 18266 bound_to 18253
  238.5414  393.9386 -121.0606 H   0  0  0  0  0  0  0  0  0  0  0  0  # atno 18355 bound_to 18311
  235.2224  392.2197 -123.8508 H   0  0  0  0  0  0  0  0  0  0  0  0  # atno 18440 bound_to 18401
  228.4888  392.5184 -121.5793 H   0  0  0  0  0  0  0  0  0  0  0  0  # atno 18448 bound_to 18412
  236.2035  388.1949 -122.1373 H   0  0  0  0  0  0  0  0  0  0  0  0  # atno 18508 bound_to 18473
  235.3269  386.3856 -125.5713 H   0  0  0  0  0  0  0  0  0  0  0  0  # atno 18542 bound_to 18529
  231.0938  384.2727 -123.5977 H   0  0  0  0  0  0  0  0  0  0  0  0  # atno 18655 bound_to 18628
  230.1915  386.6087 -123.6887 H   0  0  0  0  0  0  0  0  0  0  0  0  # atno 18726 bound_to 18685
  237.5029  388.4099 -126.1634 H   0  0  0  0  0  0  0  0  0  0  0  0  # atno 22392 bound_to 22358
  232.4232  389.3712 -103.6644 H   0  0  0  0  0  0  0  0  0  0  0  0  # atno 26034 bound_to 25996
  230.3772  385.7221 -108.3384 H   0  0  0  0  0  0  0  0  0  0  0  0  # atno 26042 bound_to 26007
  234.1231  395.2133 -117.3719 LP  0  0  0  0  0  0  0  0  0  0  0  0  # atno 27272 bound_to 17069
  234.2921  395.6246 -119.0459 LP  0  0  0  0  0  0  0  0  0  0  0  0  # atno 27273 bound_to 17069
  231.0335  394.9744 -117.4148 LP  0  0  0  0  0  0  0  0  0  0  0  0  # atno 27274 bound_to 17116
  232.0758  396.4458 -114.4782 LP  0  0  0  0  0  0  0  0  0  0  0  0  # atno 27275 bound_to 17162
  233.5224  396.9297 -113.9591 LP  0  0  0  0  0  0  0  0  0  0  0  0  # atno 27276 bound_to 18153
  234.2307  395.9567 -115.2048 LP  0  0  0  0  0  0  0  0  0  0  0  0  # atno 27277 bound_to 18153
  236.7869  395.1552 -117.4545 LP  0  0  0  0  0  0  0  0  0  0  0  0  # atno 27278 bound_to 18253
  237.5605  396.4981 -121.5669 LP  0  0  0  0  0  0  0  0  0  0  0  0  # atno 27279 bound_to 18256
  235.9938  395.8127 -121.2921 LP  0  0  0  0  0  0  0  0  0  0  0  0  # atno 27280 bound_to 18256
  237.0708  393.4980 -120.2294 LP  0  0  0  0  0  0  0  0  0  0  0  0  # atno 27281 bound_to 18311
  237.2329  390.1439 -121.7743 LP  0  0  0  0  0  0  0  0  0  0  0  0  # atno 27282 bound_to 18314
  237.0525  391.3307 -120.5257 LP  0  0  0  0  0  0  0  0  0  0  0  0  # atno 27283 bound_to 18314
  236.3067  391.7288 -122.5713 LP  0  0  0  0  0  0  0  0  0  0  0  0  # atno 27284 bound_to 18401
  237.3815  389.7013 -124.5666 LP  0  0  0  0  0  0  0  0  0  0  0  0  # atno 27285 bound_to 18404
  236.1730  388.9628 -125.5637 LP  0  0  0  0  0  0  0  0  0  0  0  0  # atno 27286 bound_to 18404
  229.1999  392.0605 -120.1891 LP  0  0  0  0  0  0  0  0  0  0  0  0  # atno 27287 bound_to 18412
  228.3296  390.9854 -121.0571 LP  0  0  0  0  0  0  0  0  0  0  0  0  # atno 27288 bound_to 18412
  235.0603  388.6433 -123.3834 LP  0  0  0  0  0  0  0  0  0  0  0  0  # atno 27289 bound_to 18473
  233.4505  387.1196 -122.9490 LP  0  0  0  0  0  0  0  0  0  0  0  0  # atno 27290 bound_to 18476
  232.6400  386.2672 -124.2204 LP  0  0  0  0  0  0  0  0  0  0  0  0  # atno 27291 bound_to 18476
  232.2993  384.1057 -122.3476 LP  0  0  0  0  0  0  0  0  0  0  0  0  # atno 27292 bound_to 18628
  239.7454  385.8402 -115.5220 LP  0  0  0  0  0  0  0  0  0  0  0  0  # atno 27301 bound_to 7386
  240.8658  386.0171 -117.3982 LP  0  0  0  0  0  0  0  0  0  0  0  0  # atno 27302 bound_to 7441
  236.7491  396.9069 -114.8229 LP  0  0  0  0  0  0  0  0  0  0  0  0  # atno 27303 bound_to 18215
  238.5432  397.8415 -117.2777 LP  0  0  0  0  0  0  0  0  0  0  0  0  # atno 27304 bound_to 18218
  238.8796  396.3068 -116.5486 LP  0  0  0  0  0  0  0  0  0  0  0  0  # atno 27305 bound_to 18218
  233.6348  395.1135 -125.3853 LP  0  0  0  0  0  0  0  0  0  0  0  0  # atno 27306 bound_to 16956
  233.3024  394.9851 -123.6903 LP  0  0  0  0  0  0  0  0  0  0  0  0  # atno 27307 bound_to 16956
  234.8665  384.9478 -124.6968 LP  0  0  0  0  0  0  0  0  0  0  0  0  # atno 27308 bound_to 18529
  241.3848  395.2017 -118.2412 LP  0  0  0  0  0  0  0  0  0  0  0  0  # atno 27309 bound_to 10030
  242.8140  395.6479 -118.8930 LP  0  0  0  0  0  0  0  0  0  0  0  0  # atno 27310 bound_to 10030
  230.2583  397.4669 -120.9655 LP  0  0  0  0  0  0  0  0  0  0  0  0  # atno 27311 bound_to 16996
  230.0494  395.8804 -120.3027 LP  0  0  0  0  0  0  0  0  0  0  0  0  # atno 27312 bound_to 16996
  236.6857  398.9349 -118.6720 LP  0  0  0  0  0  0  0  0  0  0  0  0  # atno 27313 bound_to 18220
  236.7804  399.2309 -117.0689 LP  0  0  0  0  0  0  0  0  0  0  0  0  # atno 27314 bound_to 18220
  229.3328  396.0916 -114.7168 LP  0  0  0  0  0  0  0  0  0  0  0  0  # atno 27315 bound_to 17119
  229.7833  397.6205 -115.3948 LP  0  0  0  0  0  0  0  0  0  0  0  0  # atno 27316 bound_to 17119
  232.3562  396.9970 -110.9450 LP  0  0  0  0  0  0  0  0  0  0  0  0  # atno 27317 bound_to 17165
  232.7968  397.0011 -112.6201 LP  0  0  0  0  0  0  0  0  0  0  0  0  # atno 27318 bound_to 17165
  234.2374  399.3249 -112.3352 LP  0  0  0  0  0  0  0  0  0  0  0  0  # atno 27319 bound_to 18150
  229.1560  395.8928 -111.9440 LP  0  0  0  0  0  0  0  0  0  0  0  0  # atno 27320 bound_to 17223
  239.6535  399.5865 -117.6981 LP  0  0  0  0  0  0  0  0  0  0  0  0  # atno 27321 bound_to 10072
  237.6435  399.2852 -114.0027 LP  0  0  0  0  0  0  0  0  0  0  0  0  # atno 27322 bound_to 10075
  238.2770  398.8083 -115.5426 LP  0  0  0  0  0  0  0  0  0  0  0  0  # atno 27323 bound_to 10075
  228.1509  394.2755 -112.5248 LP  0  0  0  0  0  0  0  0  0  0  0  0  # atno 27324 bound_to 11354
  227.9729  395.5096 -111.3227 LP  0  0  0  0  0  0  0  0  0  0  0  0  # atno 27325 bound_to 11354
  225.4942  392.5870 -120.1683 LP  0  0  0  0  0  0  0  0  0  0  0  0  # atno 27328 bound_to 16904
  226.4520  393.5645 -119.2773 LP  0  0  0  0  0  0  0  0  0  0  0  0  # atno 27329 bound_to 16904
  224.3662  392.5780 -113.4142 LP  0  0  0  0  0  0  0  0  0  0  0  0  # atno 27333 bound_to 11356
  224.2232  394.2001 -113.5363 LP  0  0  0  0  0  0  0  0  0  0  0  0  # atno 27334 bound_to 11356
  225.3350  396.1416 -113.4613 LP  0  0  0  0  0  0  0  0  0  0  0  0  # atno 27335 bound_to 11404
  231.8573  385.4305 -107.7291 LP  0  0  0  0  0  0  0  0  0  0  0  0  # atno 27336 bound_to 26007
  231.5943  386.7579 -108.6431 LP  0  0  0  0  0  0  0  0  0  0  0  0  # atno 27337 bound_to 26007
  236.7600  384.6715 -113.0873 LP  0  0  0  0  0  0  0  0  0  0  0  0  # atno 27338 bound_to 7265
  237.5610  383.1667 -113.3938 LP  0  0  0  0  0  0  0  0  0  0  0  0  # atno 27339 bound_to 7265
  228.7023  396.8477 -109.5110 LP  0  0  0  0  0  0  0  0  0  0  0  0  # atno 27343 bound_to 17273
  230.3208  395.9998 -106.9708 LP  0  0  0  0  0  0  0  0  0  0  0  0  # atno 27344 bound_to 17329
  230.2276  383.0417 -105.5499 LP  0  0  0  0  0  0  0  0  0  0  0  0  # atno 27345 bound_to 2414
  231.1866  381.8876 -104.6847 LP  0  0  0  0  0  0  0  0  0  0  0  0  # atno 27346 bound_to 2414
  232.5563  390.6894 -102.5256 LP  0  0  0  0  0  0  0  0  0  0  0  0  # atno 27347 bound_to 25996
  228.1145  393.8342 -105.7162 LP  0  0  0  0  0  0  0  0  0  0  0  0  # atno 27348 bound_to 17276
  229.0643  394.9760 -104.8249 LP  0  0  0  0  0  0  0  0  0  0  0  0  # atno 27349 bound_to 17276

> <Gold.Score>
     Fitness  S(hb_ext) S(vdw_ext)  S(hb_int)    S(int)      intcor
     39.01       9.71      21.92       0.00      -0.84      -0.78

> <Gold.Goldscore.Fitness>
39.0075

> <Gold.Goldscore.Internal.Vdw>
-1.0249

> <Gold.Goldscore.Internal.Torsion>
-0.5929

> <Gold.Goldscore.External.Vdw>
21.9225

> <Gold.Goldscore.Internal.HBond>
0.0000

> <Gold.Goldscore.External.HBond>
9.7066

> <Gold.Goldscore.Internal.Correction>
-0.7752

> <Gold.Goldscore.Hbonds>
donor molecule, donor type, donor heavy atom, donor atom, acceptor molecule, acceptor atom, score
      L1  H     8    22       P1 26959  0.69
      L1  H    10    23       P1 17280  0.93

> <Gold.Goldscore.Internal.Vdw.Weighted>
-1.0249

> <Gold.Goldscore.Internal.Torsion.Weighted>
-0.5929

> <Gold.Goldscore.External.Vdw.Weighted>
30.1434

> <Gold.Goldscore.Internal.HBond.Weighted>
0.0000

> <Gold.Goldscore.External.HBond.Weighted>
9.7066

> <Gold.Goldscore.Internal.Correction.Weighted>
-0.7752

> <Gold.Rescore>
     Score     S(PLP)   S(hbond)     S(cho)   S(metal)  DE(clash)   DE(tors)     intcor
     28.00     -27.58       0.92       0.00       0.00       0.00       1.17       ----

> <Gold.PLP.Fitness>
28.0027

> <Gold.PLP.PLP>
-27.5770

> <Gold.PLP.part.hbond>
-1.0000

> <Gold.PLP.part.metal>
0.0000

> <Gold.PLP.part.buried>
-1.1565

> <Gold.PLP.part.nonpolar>
-25.7692

> <Gold.PLP.part.repulsive>
1.1329

> <Gold.PLP.ligand.clash>
0.0000

> <Gold.PLP.ligand.torsion>
1.1654

> <Gold.PLP.Chemscore.Hbond>
0.9188

> <Gold.PLP.Chemscore.CHOScore>
0.0000

> <Gold.PLP.Chemscore.Metal>
0.0000

> <Gold.Chemscore.Hbonds>
donor molecule, donor type, donor heavy atom, donor atom, acceptor molecule, acceptor atom, score
      L1  H     8    22       P1 26959  0.29
      L1  H    10    23       P1 17280  0.65

> <Gold.PLP.Chemscore.Internal.Correction>
   9.000000E+99

