#       Name:                CT1002167954
#       Creating user name   hitesit
#       Creation time:       Sun Apr 16 02:35:13 2023


#       File generated by GOLD software.
#

@<TRIPOS>MOLECULE
CT1002167954|ligand_prepared|mol2|1|dock1
    29    30     1
SMALL
NO_CHARGES


@<TRIPOS>ATOM
      1 C1         234.1150 390.6967 -116.2072 C.3            1 RES1               0.0000
      2 C2         233.4789 390.0050 -114.9842 C.ar           1 RES1               0.0000
      3 C3         233.2713 391.9375 -116.4846 C.2            1 RES1               0.0000
      4 C4         235.5591 390.9994 -115.8229 C.2            1 RES1               0.0000
      5 C5         234.1333 389.8203 -117.4812 C.3            1 RES1               0.0000
      6 C6         234.0040 390.1959 -113.7096 C.ar           1 RES1               0.0000
      7 C7         232.3672 389.1769 -115.1142 C.ar           1 RES1               0.0000
      8 N8         233.8029 393.1495 -116.1553 N.am           1 RES1               0.0000
      9 O9         232.1410 391.8510 -116.9485 O.2            1 RES1               0.0000
     10 N10        235.9329 392.3134 -115.7152 N.am           1 RES1               0.0000
     11 O11        236.3723 390.1119 -115.5962 O.2            1 RES1               0.0000
     12 C12        235.0330 390.3584 -118.5827 C.3            1 RES1               0.0000
     13 C13        233.4365 389.5835 -112.6045 C.ar           1 RES1               0.0000
     14 C14        231.8014 388.5652 -114.0077 C.ar           1 RES1               0.0000
     15 C15        235.1124 393.4019 -115.8340 C.2            1 RES1               0.0000
     16 C16        232.3347 388.7682 -112.7527 C.ar           1 RES1               0.0000
     17 O17        235.5110 394.5512 -115.6693 O.2            1 RES1               0.0000
     18 H18        234.4702 388.8118 -117.2113 H              1 RES1               0.0000
     19 H19        233.1103 389.7395 -117.8689 H              1 RES1               0.0000
     20 H20        234.8722 390.8321 -113.5737 H              1 RES1               0.0000
     21 H21        231.9315 389.0019 -116.0920 H              1 RES1               0.0000
     22 H22        233.1680 393.9414 -116.1472 H              1 RES1               0.0000
     23 H23        236.9138 392.4970 -115.5294 H              1 RES1               0.0000
     24 H24        235.0091 389.7063 -119.4533 H              1 RES1               0.0000
     25 H25        234.7113 391.3503 -118.8934 H              1 RES1               0.0000
     26 H26        236.0632 390.4282 -118.2396 H              1 RES1               0.0000
     27 H27        233.8608 389.7453 -111.6191 H              1 RES1               0.0000
     28 H28        230.9347 387.9239 -114.1291 H              1 RES1               0.0000
     29 H29        231.8901 388.2889 -111.8868 H              1 RES1               0.0000
@<TRIPOS>BOND
    1    1    2 1     
    2    1    3 1     
    3    1    4 1     
    4    1    5 1     
    5    2    6 ar    
    6    2    7 ar    
    7    3    8 1     
    8    3    9 2     
    9    4   10 1     
   10    4   11 2     
   11    5   12 1     
   12    5   18 1     
   13    5   19 1     
   14    6   13 ar    
   15    6   20 1     
   16    7   14 ar    
   17    7   21 1     
   18    8   15 1     
   19    8   22 1     
   20   10   15 1     
   21   10   23 1     
   22   12   24 1     
   23   12   25 1     
   24   12   26 1     
   25   13   16 ar    
   26   13   27 1     
   27   14   16 ar    
   28   14   28 1     
   29   15   17 2     
   30   16   29 1     
@<TRIPOS>SUBSTRUCTURE
      1 RES1           1
@<TRIPOS>SET
DONOR_HYDROGENS      STATIC     ATOMS    <user>   **** ""
2 22 23
ATOM$RED        STATIC     ATOMS    COLORGROUP SYSTEM
2 22 23
@<TRIPOS>COMMENT
> <Gold.Version>
2022.3.0

> <Gold.Id.Protein>
unknown|7ts3_clean|pdb

> <Gold.Protein.RotatedTorsions>
[ 17136 17116 17117 17118 ] final   62.75 input   42.97 | X-H torsion
[ 17196 17162 17163 17164 ] final  -41.59 input  102.93 | X-H torsion
[ 18266 18253 18254 18255 ] final  129.63 input   38.47 | X-H torsion
[ 18355 18311 18312 18313 ] final   73.97 input   32.37 | X-H torsion
[ 18440 18401 18402 18403 ] final -178.14 input  104.02 | X-H torsion
[ 18448 18412 18411 18409 ] final -114.60 input   60.03 | X-H torsion
[ 18508 18473 18474 18475 ] final  -89.48 input   98.64 | X-H torsion
[ 18655 18628 18629 18630 ] final    2.73 input  122.95 | X-H torsion
[ 7402 7386 7387 7388 ] final  141.80 input  101.82 | X-H torsion
[ 7448 7441 7442 7443 ] final   -1.42 input   81.00 | X-H torsion
[ 18236 18215 18216 18217 ] final   26.39 input   34.45 | X-H torsion
[ 18542 18529 18530 18531 ] final -129.18 input  116.11 | X-H torsion
[ 10056 10030 10029 10026 ] final  -62.68 input   60.02 | X-H torsion
[ 18240 18220 18219 18216 ] final  122.84 input   59.98 | X-H torsion
[ 18188 18150 18151 18152 ] final -102.61 input   43.88 | X-H torsion
[ 17244 17223 17224 17225 ] final  154.58 input   49.67 | X-H torsion
[ 10092 10072 10073 10074 ] final   96.69 input   21.26 | X-H torsion
[ 16940 16904 16903 16901 ] final  -44.99 input   59.97 | X-H torsion
[ 11376 11356 11355 11352 ] final -163.89 input   60.02 | X-H torsion
[ 11437 11404 11405 11406 ] final   49.15 input   53.40 | X-H torsion
[ 26042 26007 26006 26004 ] final  -19.23 input   59.98 | X-H torsion
[ 17299 17273 17274 17275 ] final   12.64 input   71.10 | X-H torsion
[ 17364 17329 17330 17331 ] final  106.93 input   83.79 | X-H torsion
[ 26034 25996 25997 25998 ] final -120.56 input  104.01 | X-H torsion
[ 18726 18685 18686 18687 ] final  -16.29 input   93.05 | X-H torsion
[ 22392 22358 22359 22360 ] final -172.14 input   47.29 | X-H torsion
[ 27272 17069 17068 17067 ] final   87.96 input   -0.00 | X-H torsion
[ 27276 18153 18152 18151 ] final  -78.62 input   -0.00 | X-H torsion
[ 27279 18256 18255 18254 ] final  -24.14 input   -0.00 | X-H torsion
[ 27282 18314 18313 18312 ] final  161.38 input    0.00 | X-H torsion
[ 27285 18404 18403 18402 ] final -110.27 input   -0.00 | X-H torsion
[ 27290 18476 18475 18474 ] final -134.36 input   -0.00 | X-H torsion
[ 27304 18218 18217 18216 ] final  -13.69 input   -0.00 | X-H torsion
[ 27306 16956 16955 16954 ] final  -69.89 input   -0.00 | X-H torsion
[ 27311 16996 16995 16994 ] final -159.80 input    0.00 | X-H torsion
[ 27315 17119 17118 17117 ] final -126.27 input    0.00 | X-H torsion
[ 27317 17165 17164 17163 ] final  -32.68 input    0.00 | X-H torsion
[ 27322 10075 10074 10073 ] final  -74.97 input   -0.00 | X-H torsion
[ 27324 11354 11353 11352 ] final  -98.84 input    0.00 | X-H torsion
[ 27338 7265 7264 7263 ] final  121.74 input   -0.00 | X-H torsion
[ 27345 2414 2413 2412 ] final  -79.47 input    0.00 | X-H torsion
[ 27348 17276 17275 17274 ] final -150.55 input   -0.00 | X-H torsion

> <Gold.Protein.ActiveResidues>
 MET341  HIS342  TRP414  ARG419  CYS420  VAL421  GLY422  LEU429  LEU460  SER462 
 ALA463  ILE464  SER482  GLN483  ARG486  TYR567  GLY568  LEU569  PRO570  ALA571 
 VAL572  SER573  ASN574  MET575  PRO588  PHE589  SER590  GLY591  TRP592  TYR593 
 MET594  GLY595  GLU597  ILE598  ARG601  ASP602  ARG608  ILE653  VAL654  TRP683 
 PHE709  TYR711  HEM801  H4B802 

> <Gold.Protein.RotatedAtoms>
  239.1090  384.4833 -115.3399 H   0  0  0  0  0  0  0  0  0  0  0  0  # atno 7402 bound_to 7386
  241.7788  386.4847 -115.9984 H   0  0  0  0  0  0  0  0  0  0  0  0  # atno 7448 bound_to 7441
  240.9522  395.5778 -118.7484 H   0  0  0  0  0  0  0  0  0  0  0  0  # atno 10056 bound_to 10030
  239.4154  399.4715 -117.5791 H   0  0  0  0  0  0  0  0  0  0  0  0  # atno 10092 bound_to 10072
  223.3973  392.6230 -112.9579 H   0  0  0  0  0  0  0  0  0  0  0  0  # atno 11376 bound_to 11356
  225.1751  395.6253 -113.9627 H   0  0  0  0  0  0  0  0  0  0  0  0  # atno 11437 bound_to 11404
  227.1874  392.4497 -120.0408 H   0  0  0  0  0  0  0  0  0  0  0  0  # atno 16940 bound_to 16904
  230.6410  395.7746 -117.9165 H   0  0  0  0  0  0  0  0  0  0  0  0  # atno 17136 bound_to 17116
  231.5883  396.4240 -114.7282 H   0  0  0  0  0  0  0  0  0  0  0  0  # atno 17196 bound_to 17162
  229.9791  396.4700 -112.5846 H   0  0  0  0  0  0  0  0  0  0  0  0  # atno 17244 bound_to 17223
  229.8209  395.6036 -109.2399 H   0  0  0  0  0  0  0  0  0  0  0  0  # atno 17299 bound_to 17273
  230.7538  395.1151 -108.0193 H   0  0  0  0  0  0  0  0  0  0  0  0  # atno 17364 bound_to 17329
  234.1986  399.3316 -112.4272 H   0  0  0  0  0  0  0  0  0  0  0  0  # atno 18188 bound_to 18150
  237.1502  397.8073 -115.2438 H   0  0  0  0  0  0  0  0  0  0  0  0  # atno 18236 bound_to 18215
  236.2535  399.2856 -118.8283 H   0  0  0  0  0  0  0  0  0  0  0  0  # atno 18240 bound_to 18220
  236.8015  395.1033 -117.4593 H   0  0  0  0  0  0  0  0  0  0  0  0  # atno 18266 bound_to 18253
  238.5036  393.2420 -120.8752 H   0  0  0  0  0  0  0  0  0  0  0  0  # atno 18355 bound_to 18311
  235.0619  392.3409 -122.8265 H   0  0  0  0  0  0  0  0  0  0  0  0  # atno 18440 bound_to 18401
  229.1909  392.0003 -120.1774 H   0  0  0  0  0  0  0  0  0  0  0  0  # atno 18448 bound_to 18412
  235.8801  388.8127 -123.5252 H   0  0  0  0  0  0  0  0  0  0  0  0  # atno 18508 bound_to 18473
  235.0802  386.5301 -125.2620 H   0  0  0  0  0  0  0  0  0  0  0  0  # atno 18542 bound_to 18529
  231.1151  384.3146 -123.6108 H   0  0  0  0  0  0  0  0  0  0  0  0  # atno 18655 bound_to 18628
  229.5108  385.0467 -123.4532 H   0  0  0  0  0  0  0  0  0  0  0  0  # atno 18726 bound_to 18685
  238.6055  389.3131 -126.9607 H   0  0  0  0  0  0  0  0  0  0  0  0  # atno 22392 bound_to 22358
  232.6318  390.5096 -103.8212 H   0  0  0  0  0  0  0  0  0  0  0  0  # atno 26034 bound_to 25996
  231.9737  385.5570 -107.7723 H   0  0  0  0  0  0  0  0  0  0  0  0  # atno 26042 bound_to 26007
  234.1967  396.1340 -118.6973 LP  0  0  0  0  0  0  0  0  0  0  0  0  # atno 27272 bound_to 17069
  234.2185  394.7039 -117.7205 LP  0  0  0  0  0  0  0  0  0  0  0  0  # atno 27273 bound_to 17069
  232.2829  395.1720 -118.0064 LP  0  0  0  0  0  0  0  0  0  0  0  0  # atno 27274 bound_to 17116
  232.4447  394.9069 -114.8937 LP  0  0  0  0  0  0  0  0  0  0  0  0  # atno 27275 bound_to 17162
  234.2431  395.7801 -114.1625 LP  0  0  0  0  0  0  0  0  0  0  0  0  # atno 27276 bound_to 18153
  233.5101  397.1063 -115.0015 LP  0  0  0  0  0  0  0  0  0  0  0  0  # atno 27277 bound_to 18153
  236.4284  396.3399 -118.6441 LP  0  0  0  0  0  0  0  0  0  0  0  0  # atno 27278 bound_to 18253
  236.5982  396.5460 -120.6776 LP  0  0  0  0  0  0  0  0  0  0  0  0  # atno 27279 bound_to 18256
  236.9561  395.7648 -122.1815 LP  0  0  0  0  0  0  0  0  0  0  0  0  # atno 27280 bound_to 18256
  237.1080  394.1826 -120.4116 LP  0  0  0  0  0  0  0  0  0  0  0  0  # atno 27281 bound_to 18311
  236.4649  390.2125 -121.2728 LP  0  0  0  0  0  0  0  0  0  0  0  0  # atno 27282 bound_to 18314
  237.8206  391.2621 -121.0272 LP  0  0  0  0  0  0  0  0  0  0  0  0  # atno 27283 bound_to 18314
  236.4635  391.6104 -123.5719 LP  0  0  0  0  0  0  0  0  0  0  0  0  # atno 27284 bound_to 18401
  236.2662  388.8028 -125.5220 LP  0  0  0  0  0  0  0  0  0  0  0  0  # atno 27285 bound_to 18404
  237.2884  389.8612 -124.6083 LP  0  0  0  0  0  0  0  0  0  0  0  0  # atno 27286 bound_to 18404
  228.3033  391.0049 -121.1098 LP  0  0  0  0  0  0  0  0  0  0  0  0  # atno 27287 bound_to 18412
  228.5191  392.5630 -121.5485 LP  0  0  0  0  0  0  0  0  0  0  0  0  # atno 27288 bound_to 18412
  235.3740  388.0441 -122.0374 LP  0  0  0  0  0  0  0  0  0  0  0  0  # atno 27289 bound_to 18473
  232.7616  385.8866 -123.7214 LP  0  0  0  0  0  0  0  0  0  0  0  0  # atno 27290 bound_to 18476
  233.3288  387.5001 -123.4481 LP  0  0  0  0  0  0  0  0  0  0  0  0  # atno 27291 bound_to 18476
  232.2783  384.0643 -122.3347 LP  0  0  0  0  0  0  0  0  0  0  0  0  # atno 27292 bound_to 18628
  240.2948  385.6754 -114.8685 LP  0  0  0  0  0  0  0  0  0  0  0  0  # atno 27301 bound_to 7386
  240.7403  386.1359 -117.3562 LP  0  0  0  0  0  0  0  0  0  0  0  0  # atno 27302 bound_to 7441
  235.5155  397.4840 -114.7235 LP  0  0  0  0  0  0  0  0  0  0  0  0  # atno 27303 bound_to 18215
  238.3310  397.7239 -116.4852 LP  0  0  0  0  0  0  0  0  0  0  0  0  # atno 27304 bound_to 18218
  239.0919  396.4244 -117.3411 LP  0  0  0  0  0  0  0  0  0  0  0  0  # atno 27305 bound_to 18218
  233.0150  394.3146 -124.6044 LP  0  0  0  0  0  0  0  0  0  0  0  0  # atno 27306 bound_to 16956
  233.9222  395.7840 -124.4711 LP  0  0  0  0  0  0  0  0  0  0  0  0  # atno 27307 bound_to 16956
  235.1101  384.8051 -125.0021 LP  0  0  0  0  0  0  0  0  0  0  0  0  # atno 27308 bound_to 18529
  242.4880  395.2447 -118.3263 LP  0  0  0  0  0  0  0  0  0  0  0  0  # atno 27309 bound_to 10030
  242.1809  396.1861 -119.6248 LP  0  0  0  0  0  0  0  0  0  0  0  0  # atno 27310 bound_to 10030
  230.3605  396.2542 -119.9051 LP  0  0  0  0  0  0  0  0  0  0  0  0  # atno 27311 bound_to 16996
  229.9471  397.0931 -121.3630 LP  0  0  0  0  0  0  0  0  0  0  0  0  # atno 27312 bound_to 16996
  237.0464  398.8968 -117.4614 LP  0  0  0  0  0  0  0  0  0  0  0  0  # atno 27313 bound_to 18220
  235.8402  399.9969 -117.4243 LP  0  0  0  0  0  0  0  0  0  0  0  0  # atno 27314 bound_to 18220
  229.7696  397.1664 -114.2754 LP  0  0  0  0  0  0  0  0  0  0  0  0  # atno 27315 bound_to 17119
  229.3465  396.5457 -115.8361 LP  0  0  0  0  0  0  0  0  0  0  0  0  # atno 27316 bound_to 17119
  233.0446  396.2832 -111.9186 LP  0  0  0  0  0  0  0  0  0  0  0  0  # atno 27317 bound_to 17165
  232.1084  397.7148 -111.6465 LP  0  0  0  0  0  0  0  0  0  0  0  0  # atno 27318 bound_to 17165
  234.0463  397.6700 -111.9016 LP  0  0  0  0  0  0  0  0  0  0  0  0  # atno 27319 bound_to 18150
  230.0482  395.4679 -111.1562 LP  0  0  0  0  0  0  0  0  0  0  0  0  # atno 27320 bound_to 17223
  240.6747  398.7852 -116.5860 LP  0  0  0  0  0  0  0  0  0  0  0  0  # atno 27321 bound_to 10072
  237.4390  399.5269 -115.2704 LP  0  0  0  0  0  0  0  0  0  0  0  0  # atno 27322 bound_to 10075
  238.4816  398.5666 -114.2750 LP  0  0  0  0  0  0  0  0  0  0  0  0  # atno 27323 bound_to 10075
  228.1576  395.7420 -111.7849 LP  0  0  0  0  0  0  0  0  0  0  0  0  # atno 27324 bound_to 11354
  227.9661  394.0431 -112.0625 LP  0  0  0  0  0  0  0  0  0  0  0  0  # atno 27325 bound_to 11354
  225.5738  392.4668 -120.2502 LP  0  0  0  0  0  0  0  0  0  0  0  0  # atno 27328 bound_to 16904
  226.2872  393.5782 -119.2898 LP  0  0  0  0  0  0  0  0  0  0  0  0  # atno 27329 bound_to 16904
  224.7211  393.2546 -113.6615 LP  0  0  0  0  0  0  0  0  0  0  0  0  # atno 27333 bound_to 11356
  223.4966  394.2293 -113.1955 LP  0  0  0  0  0  0  0  0  0  0  0  0  # atno 27334 bound_to 11356
  226.3891  395.2142 -112.7728 LP  0  0  0  0  0  0  0  0  0  0  0  0  # atno 27335 bound_to 11404
  231.4275  386.7752 -108.7023 LP  0  0  0  0  0  0  0  0  0  0  0  0  # atno 27336 bound_to 26007
  230.4156  385.5796 -108.2403 LP  0  0  0  0  0  0  0  0  0  0  0  0  # atno 27337 bound_to 26007
  236.9410  384.7564 -113.2698 LP  0  0  0  0  0  0  0  0  0  0  0  0  # atno 27338 bound_to 7265
  237.3799  383.0819 -113.2114 LP  0  0  0  0  0  0  0  0  0  0  0  0  # atno 27339 bound_to 7265
  228.4505  396.5810 -109.7017 LP  0  0  0  0  0  0  0  0  0  0  0  0  # atno 27343 bound_to 17273
  229.6141  395.3658 -106.7266 LP  0  0  0  0  0  0  0  0  0  0  0  0  # atno 27344 bound_to 17329
  231.2036  381.8241 -104.8122 LP  0  0  0  0  0  0  0  0  0  0  0  0  # atno 27345 bound_to 2414
  230.2105  383.1052 -105.4225 LP  0  0  0  0  0  0  0  0  0  0  0  0  # atno 27346 bound_to 2414
  232.3520  389.5747 -102.3721 LP  0  0  0  0  0  0  0  0  0  0  0  0  # atno 27347 bound_to 25996
  229.3437  394.5774 -104.8814 LP  0  0  0  0  0  0  0  0  0  0  0  0  # atno 27348 bound_to 17276
  227.8352  394.2329 -105.6597 LP  0  0  0  0  0  0  0  0  0  0  0  0  # atno 27349 bound_to 17276

> <Gold.Score>
     Fitness  S(hb_ext) S(vdw_ext)  S(hb_int)    S(int)      intcor
     56.25       0.36      41.39       0.00      -1.02      -0.80

> <Gold.Goldscore.Fitness>
56.2543

> <Gold.Goldscore.Internal.Vdw>
-1.1832

> <Gold.Goldscore.Internal.Torsion>
-0.6425

> <Gold.Goldscore.External.Vdw>
41.3917

> <Gold.Goldscore.Internal.HBond>
0.0000

> <Gold.Goldscore.External.HBond>
0.3648

> <Gold.Goldscore.Internal.Correction>
-0.8016

> <Gold.Goldscore.Hbonds>
donor molecule, donor type, donor heavy atom, donor atom, acceptor molecule, acceptor atom, score
      P1  H 18253 18266       L1    17  0.05
      L1  H     8    22       P1 17162  0.04

> <Gold.Goldscore.Internal.Vdw.Weighted>
-1.1832

> <Gold.Goldscore.Internal.Torsion.Weighted>
-0.6425

> <Gold.Goldscore.External.Vdw.Weighted>
56.9136

> <Gold.Goldscore.Internal.HBond.Weighted>
0.0000

> <Gold.Goldscore.External.HBond.Weighted>
0.3648

> <Gold.Goldscore.Internal.Correction.Weighted>
-0.8016

> <Gold.Rescore>
     Score     S(PLP)   S(hbond)     S(cho)   S(metal)  DE(clash)   DE(tors)     intcor
     48.53     -44.07       0.34       0.00       1.00       1.30       0.63       ----

> <Gold.PLP.Fitness>
48.5258

> <Gold.PLP.PLP>
-44.0651

> <Gold.PLP.part.hbond>
-2.9786

> <Gold.PLP.part.metal>
-1.0000

> <Gold.PLP.part.buried>
12.2905

> <Gold.PLP.part.nonpolar>
-58.9640

> <Gold.PLP.part.repulsive>
6.5830

> <Gold.PLP.ligand.clash>
1.2990

> <Gold.PLP.ligand.torsion>
0.6350

> <Gold.PLP.Chemscore.Hbond>
0.3432

> <Gold.PLP.Chemscore.CHOScore>
0.0000

> <Gold.PLP.Chemscore.Metal>
1.0000

> <Gold.Chemscore.Hbonds>
donor molecule, donor type, donor heavy atom, donor atom, acceptor molecule, acceptor atom, score
      P1  H 18253 18266       L1    17  0.57
      P1  M 26969 26969       L1    11  1.00

> <Gold.PLP.Chemscore.Internal.Correction>
   9.000000E+99

