#       Name:                CT1002167954
#       Creating user name   hitesit
#       Creation time:       Sun Apr 16 02:35:19 2023


#       File generated by GOLD software.
#

@<TRIPOS>MOLECULE
CT1002167954|ligand_prepared|mol2|1|dock10
    29    30     1
SMALL
NO_CHARGES


@<TRIPOS>ATOM
      1 C1         229.5264 389.1498 -113.0962 C.3            1 RES1               0.0000
      2 C2         230.2413 389.3528 -114.4477 C.ar           1 RES1               0.0000
      3 C3         228.5795 390.3347 -112.9302 C.2            1 RES1               0.0000
      4 C4         228.8238 387.7995 -113.1839 C.2            1 RES1               0.0000
      5 C5         230.4839 389.1123 -111.8824 C.3            1 RES1               0.0000
      6 C6         229.5088 389.4974 -115.6221 C.ar           1 RES1               0.0000
      7 C7         231.6301 389.4001 -114.5354 C.ar           1 RES1               0.0000
      8 N8         227.2455 390.1058 -113.0977 N.am           1 RES1               0.0000
      9 O9         229.0001 391.4608 -112.6950 O.2            1 RES1               0.0000
     10 N10        227.4538 387.7858 -113.1597 N.am           1 RES1               0.0000
     11 O11        229.4439 386.7486 -113.2903 O.2            1 RES1               0.0000
     12 C12        229.7729 388.9825 -110.5445 C.3            1 RES1               0.0000
     13 C13        230.1415 389.6856 -116.8397 C.ar           1 RES1               0.0000
     14 C14        232.2608 389.5882 -115.7541 C.ar           1 RES1               0.0000
     15 C15        226.6323 388.8800 -113.1516 C.2            1 RES1               0.0000
     16 C16        231.5178 389.7315 -116.9065 C.ar           1 RES1               0.0000
     17 O17        225.4085 388.7880 -113.1858 O.2            1 RES1               0.0000
     18 H18        231.1711 388.2655 -112.0007 H              1 RES1               0.0000
     19 H19        231.0825 390.0316 -111.8763 H              1 RES1               0.0000
     20 H20        228.4250 389.4615 -115.5895 H              1 RES1               0.0000
     21 H21        232.2350 389.2886 -113.6420 H              1 RES1               0.0000
     22 H22        226.6488 390.9215 -113.1917 H              1 RES1               0.0000
     23 H23        227.0048 386.8755 -113.1465 H              1 RES1               0.0000
     24 H24        230.4904 388.9609 -109.7270 H              1 RES1               0.0000
     25 H25        229.0996 389.8216 -110.3824 H              1 RES1               0.0000
     26 H26        229.1877 388.0660 -110.5061 H              1 RES1               0.0000
     27 H27        229.5522 389.7965 -117.7440 H              1 RES1               0.0000
     28 H28        233.3442 389.6231 -115.8021 H              1 RES1               0.0000
     29 H29        232.0132 389.8793 -117.8604 H              1 RES1               0.0000
@<TRIPOS>BOND
    1    1    2 1     
    2    1    3 1     
    3    1    4 1     
    4    1    5 1     
    5    2    6 ar    
    6    2    7 ar    
    7    3    8 1     
    8    3    9 2     
    9    4   10 1     
   10    4   11 2     
   11    5   12 1     
   12    5   18 1     
   13    5   19 1     
   14    6   13 ar    
   15    6   20 1     
   16    7   14 ar    
   17    7   21 1     
   18    8   15 1     
   19    8   22 1     
   20   10   15 1     
   21   10   23 1     
   22   12   24 1     
   23   12   25 1     
   24   12   26 1     
   25   13   16 ar    
   26   13   27 1     
   27   14   16 ar    
   28   14   28 1     
   29   15   17 2     
   30   16   29 1     
@<TRIPOS>SUBSTRUCTURE
      1 RES1           1
@<TRIPOS>SET
DONOR_HYDROGENS      STATIC     ATOMS    <user>   **** ""
2 22 23
ATOM$RED        STATIC     ATOMS    COLORGROUP SYSTEM
2 22 23
@<TRIPOS>COMMENT
> <Gold.Version>
2022.3.0

> <Gold.Id.Protein>
unknown|7ts3_clean|pdb

> <Gold.Protein.RotatedTorsions>
[ 17136 17116 17117 17118 ] final   69.50 input   42.97 | X-H torsion
[ 17196 17162 17163 17164 ] final   86.35 input  102.93 | X-H torsion
[ 18266 18253 18254 18255 ] final   -5.11 input   38.47 | X-H torsion
[ 18355 18311 18312 18313 ] final  140.65 input   32.37 | X-H torsion
[ 18440 18401 18402 18403 ] final   49.37 input  104.02 | X-H torsion
[ 18448 18412 18411 18409 ] final -104.11 input   60.03 | X-H torsion
[ 18508 18473 18474 18475 ] final  156.12 input   98.64 | X-H torsion
[ 18655 18628 18629 18630 ] final -114.94 input  122.95 | X-H torsion
[ 7402 7386 7387 7388 ] final  -78.52 input  101.82 | X-H torsion
[ 7448 7441 7442 7443 ] final  -89.41 input   81.00 | X-H torsion
[ 18236 18215 18216 18217 ] final   87.52 input   34.45 | X-H torsion
[ 18542 18529 18530 18531 ] final -109.33 input  116.11 | X-H torsion
[ 10056 10030 10029 10026 ] final   20.19 input   60.02 | X-H torsion
[ 18240 18220 18219 18216 ] final    6.07 input   59.98 | X-H torsion
[ 18188 18150 18151 18152 ] final  144.57 input   43.88 | X-H torsion
[ 17244 17223 17224 17225 ] final  130.74 input   49.67 | X-H torsion
[ 10092 10072 10073 10074 ] final  133.35 input   21.26 | X-H torsion
[ 16940 16904 16903 16901 ] final -159.17 input   59.97 | X-H torsion
[ 11376 11356 11355 11352 ] final  138.36 input   60.02 | X-H torsion
[ 11437 11404 11405 11406 ] final -135.61 input   53.40 | X-H torsion
[ 26042 26007 26006 26004 ] final -138.83 input   59.98 | X-H torsion
[ 17299 17273 17274 17275 ] final -116.46 input   71.10 | X-H torsion
[ 17364 17329 17330 17331 ] final -115.01 input   83.79 | X-H torsion
[ 26034 25996 25997 25998 ] final  -63.80 input  104.01 | X-H torsion
[ 18726 18685 18686 18687 ] final  154.56 input   93.05 | X-H torsion
[ 22392 22358 22359 22360 ] final -121.91 input   47.29 | X-H torsion
[ 27272 17069 17068 17067 ] final  102.29 input   -0.00 | X-H torsion
[ 27276 18153 18152 18151 ] final -175.26 input   -0.00 | X-H torsion
[ 27279 18256 18255 18254 ] final -129.65 input   -0.00 | X-H torsion
[ 27282 18314 18313 18312 ] final   19.12 input    0.00 | X-H torsion
[ 27285 18404 18403 18402 ] final  -22.90 input   -0.00 | X-H torsion
[ 27290 18476 18475 18474 ] final  107.81 input   -0.00 | X-H torsion
[ 27304 18218 18217 18216 ] final  130.27 input   -0.00 | X-H torsion
[ 27306 16956 16955 16954 ] final -110.08 input   -0.00 | X-H torsion
[ 27311 16996 16995 16994 ] final -126.57 input    0.00 | X-H torsion
[ 27315 17119 17118 17117 ] final   78.93 input    0.00 | X-H torsion
[ 27317 17165 17164 17163 ] final   91.21 input    0.00 | X-H torsion
[ 27322 10075 10074 10073 ] final    4.69 input   -0.00 | X-H torsion
[ 27324 11354 11353 11352 ] final  -51.22 input    0.00 | X-H torsion
[ 27338 7265 7264 7263 ] final   21.88 input   -0.00 | X-H torsion
[ 27345 2414 2413 2412 ] final -110.91 input    0.00 | X-H torsion
[ 27348 17276 17275 17274 ] final   36.34 input   -0.00 | X-H torsion

> <Gold.Protein.ActiveResidues>
 MET341  HIS342  TRP414  ARG419  CYS420  VAL421  GLY422  LEU429  LEU460  SER462 
 ALA463  ILE464  SER482  GLN483  ARG486  TYR567  GLY568  LEU569  PRO570  ALA571 
 VAL572  SER573  ASN574  MET575  PRO588  PHE589  SER590  GLY591  TRP592  TYR593 
 MET594  GLY595  GLU597  ILE598  ARG601  ASP602  ARG608  ILE653  VAL654  TRP683 
 PHE709  TYR711  HEM801  H4B802 

> <Gold.Protein.RotatedAtoms>
  240.3537  385.1930 -114.5132 H   0  0  0  0  0  0  0  0  0  0  0  0  # atno 7402 bound_to 7386
  241.8408  385.7045 -116.9340 H   0  0  0  0  0  0  0  0  0  0  0  0  # atno 7448 bound_to 7441
  241.5827  396.1946 -119.6185 H   0  0  0  0  0  0  0  0  0  0  0  0  # atno 10056 bound_to 10030
  239.9028  399.6421 -117.7742 H   0  0  0  0  0  0  0  0  0  0  0  0  # atno 10092 bound_to 10072
  224.2116  392.4978 -113.3289 H   0  0  0  0  0  0  0  0  0  0  0  0  # atno 11376 bound_to 11356
  226.4205  395.1471 -112.7965 H   0  0  0  0  0  0  0  0  0  0  0  0  # atno 11437 bound_to 11404
  225.6361  392.4070 -120.2912 H   0  0  0  0  0  0  0  0  0  0  0  0  # atno 16940 bound_to 16904
  230.6703  395.8469 -117.9868 H   0  0  0  0  0  0  0  0  0  0  0  0  # atno 17136 bound_to 17116
  232.8111  395.4307 -114.4670 H   0  0  0  0  0  0  0  0  0  0  0  0  # atno 17196 bound_to 17162
  229.6287  396.3834 -112.5364 H   0  0  0  0  0  0  0  0  0  0  0  0  # atno 17244 bound_to 17223
  228.9917  396.9559 -109.3421 H   0  0  0  0  0  0  0  0  0  0  0  0  # atno 17299 bound_to 17273
  229.5000  394.8281 -107.0215 H   0  0  0  0  0  0  0  0  0  0  0  0  # atno 17364 bound_to 17329
  234.5521  398.3270 -111.4019 H   0  0  0  0  0  0  0  0  0  0  0  0  # atno 18188 bound_to 18150
  236.5173  398.4374 -115.3126 H   0  0  0  0  0  0  0  0  0  0  0  0  # atno 18236 bound_to 18215
  237.0525  398.8764 -117.5104 H   0  0  0  0  0  0  0  0  0  0  0  0  # atno 18240 bound_to 18220
  236.0895  395.7734 -118.7889 H   0  0  0  0  0  0  0  0  0  0  0  0  # atno 18266 bound_to 18253
  238.4154  394.1883 -121.0577 H   0  0  0  0  0  0  0  0  0  0  0  0  # atno 18355 bound_to 18311
  235.9900  391.8244 -124.0472 H   0  0  0  0  0  0  0  0  0  0  0  0  # atno 18440 bound_to 18401
  229.2048  392.1604 -120.2360 H   0  0  0  0  0  0  0  0  0  0  0  0  # atno 18448 bound_to 18412
  236.2858  388.2405 -122.2072 H   0  0  0  0  0  0  0  0  0  0  0  0  # atno 18508 bound_to 18473
  234.9031  386.5112 -125.0173 H   0  0  0  0  0  0  0  0  0  0  0  0  # atno 18542 bound_to 18529
  231.6227  383.4612 -122.4822 H   0  0  0  0  0  0  0  0  0  0  0  0  # atno 18655 bound_to 18628
  230.0646  386.7286 -123.4380 H   0  0  0  0  0  0  0  0  0  0  0  0  # atno 18726 bound_to 18685
  238.3296  389.0321 -127.6022 H   0  0  0  0  0  0  0  0  0  0  0  0  # atno 22392 bound_to 22358
  232.6388  390.9074 -103.0822 H   0  0  0  0  0  0  0  0  0  0  0  0  # atno 26034 bound_to 25996
  231.4321  386.7704 -108.6949 H   0  0  0  0  0  0  0  0  0  0  0  0  # atno 26042 bound_to 26007
  234.1630  396.2308 -118.5071 LP  0  0  0  0  0  0  0  0  0  0  0  0  # atno 27272 bound_to 17069
  234.2522  394.6071 -117.9107 LP  0  0  0  0  0  0  0  0  0  0  0  0  # atno 27273 bound_to 17069
  232.2547  395.1023 -117.9385 LP  0  0  0  0  0  0  0  0  0  0  0  0  # atno 27274 bound_to 17116
  231.2595  395.8697 -115.1468 LP  0  0  0  0  0  0  0  0  0  0  0  0  # atno 27275 bound_to 17162
  234.1021  396.1937 -115.3800 LP  0  0  0  0  0  0  0  0  0  0  0  0  # atno 27276 bound_to 18153
  233.6511  396.6927 -113.7839 LP  0  0  0  0  0  0  0  0  0  0  0  0  # atno 27277 bound_to 18153
  237.1121  395.6964 -117.3675 LP  0  0  0  0  0  0  0  0  0  0  0  0  # atno 27278 bound_to 18253
  236.0874  395.6615 -121.6038 LP  0  0  0  0  0  0  0  0  0  0  0  0  # atno 27279 bound_to 18256
  237.4669  396.6493 -121.2553 LP  0  0  0  0  0  0  0  0  0  0  0  0  # atno 27280 bound_to 18256
  237.1946  393.2526 -120.2322 LP  0  0  0  0  0  0  0  0  0  0  0  0  # atno 27281 bound_to 18311
  237.4164  391.4003 -120.6647 LP  0  0  0  0  0  0  0  0  0  0  0  0  # atno 27282 bound_to 18314
  236.8690  390.0743 -121.6353 LP  0  0  0  0  0  0  0  0  0  0  0  0  # atno 27283 bound_to 18314
  235.5569  392.1150 -122.3794 LP  0  0  0  0  0  0  0  0  0  0  0  0  # atno 27284 bound_to 18401
  236.2703  389.9832 -125.3277 LP  0  0  0  0  0  0  0  0  0  0  0  0  # atno 27285 bound_to 18404
  237.2843  388.6809 -124.8026 LP  0  0  0  0  0  0  0  0  0  0  0  0  # atno 27286 bound_to 18404
  228.3802  390.9601 -120.9622 LP  0  0  0  0  0  0  0  0  0  0  0  0  # atno 27287 bound_to 18412
  228.4281  392.4464 -121.6371 LP  0  0  0  0  0  0  0  0  0  0  0  0  # atno 27288 bound_to 18412
  234.9805  388.5990 -123.3156 LP  0  0  0  0  0  0  0  0  0  0  0  0  # atno 27289 bound_to 18473
  232.9212  387.2772 -124.2122 LP  0  0  0  0  0  0  0  0  0  0  0  0  # atno 27290 bound_to 18476
  233.1693  386.1095 -122.9573 LP  0  0  0  0  0  0  0  0  0  0  0  0  # atno 27291 bound_to 18476
  231.7777  384.9060 -123.4479 LP  0  0  0  0  0  0  0  0  0  0  0  0  # atno 27292 bound_to 18628
  239.0726  384.9786 -115.6803 LP  0  0  0  0  0  0  0  0  0  0  0  0  # atno 27301 bound_to 7386
  240.6791  386.9057 -116.4330 LP  0  0  0  0  0  0  0  0  0  0  0  0  # atno 27302 bound_to 7441
  236.1370  396.8652 -114.6560 LP  0  0  0  0  0  0  0  0  0  0  0  0  # atno 27303 bound_to 18215
  238.9924  396.2581 -116.8415 LP  0  0  0  0  0  0  0  0  0  0  0  0  # atno 27304 bound_to 18218
  238.4304  397.8902 -116.9848 LP  0  0  0  0  0  0  0  0  0  0  0  0  # atno 27305 bound_to 18218
  233.0404  394.4884 -124.0358 LP  0  0  0  0  0  0  0  0  0  0  0  0  # atno 27306 bound_to 16956
  233.8968  395.6102 -125.0398 LP  0  0  0  0  0  0  0  0  0  0  0  0  # atno 27307 bound_to 16956
  235.2849  384.8238 -125.2437 LP  0  0  0  0  0  0  0  0  0  0  0  0  # atno 27308 bound_to 18529
  241.2404  395.2659 -118.3269 LP  0  0  0  0  0  0  0  0  0  0  0  0  # atno 27309 bound_to 10030
  242.7935  395.5436 -118.7479 LP  0  0  0  0  0  0  0  0  0  0  0  0  # atno 27310 bound_to 10030
  230.5349  396.7154 -119.8575 LP  0  0  0  0  0  0  0  0  0  0  0  0  # atno 27311 bound_to 16996
  229.7727  396.6319 -121.4106 LP  0  0  0  0  0  0  0  0  0  0  0  0  # atno 27312 bound_to 16996
  235.8668  399.9833 -117.3804 LP  0  0  0  0  0  0  0  0  0  0  0  0  # atno 27313 bound_to 18220
  236.2151  399.3224 -118.8325 LP  0  0  0  0  0  0  0  0  0  0  0  0  # atno 27314 bound_to 18220
  229.2731  396.2533 -115.6085 LP  0  0  0  0  0  0  0  0  0  0  0  0  # atno 27315 bound_to 17119
  229.8429  397.4588 -114.5030 LP  0  0  0  0  0  0  0  0  0  0  0  0  # atno 27316 bound_to 17119
  232.3898  397.5783 -112.3987 LP  0  0  0  0  0  0  0  0  0  0  0  0  # atno 27317 bound_to 17165
  232.7632  396.4198 -111.1665 LP  0  0  0  0  0  0  0  0  0  0  0  0  # atno 27318 bound_to 17165
  233.7029  398.6459 -112.8977 LP  0  0  0  0  0  0  0  0  0  0  0  0  # atno 27319 bound_to 18150
  230.3918  395.5529 -111.2034 LP  0  0  0  0  0  0  0  0  0  0  0  0  # atno 27320 bound_to 17223
  240.1935  398.6167 -116.3933 LP  0  0  0  0  0  0  0  0  0  0  0  0  # atno 27321 bound_to 10072
  238.2528  398.8302 -115.5585 LP  0  0  0  0  0  0  0  0  0  0  0  0  # atno 27322 bound_to 10075
  237.6678  399.2632 -113.9868 LP  0  0  0  0  0  0  0  0  0  0  0  0  # atno 27323 bound_to 10075
  227.9232  395.3896 -111.2283 LP  0  0  0  0  0  0  0  0  0  0  0  0  # atno 27324 bound_to 11354
  228.2005  394.3954 -112.6192 LP  0  0  0  0  0  0  0  0  0  0  0  0  # atno 27325 bound_to 11354
  226.1927  393.5756 -119.3050 LP  0  0  0  0  0  0  0  0  0  0  0  0  # atno 27328 bound_to 16904
  227.2304  392.5124 -119.9828 LP  0  0  0  0  0  0  0  0  0  0  0  0  # atno 27329 bound_to 16904
  224.3750  394.0942 -113.5958 LP  0  0  0  0  0  0  0  0  0  0  0  0  # atno 27333 bound_to 11356
  223.0221  393.5159 -112.8873 LP  0  0  0  0  0  0  0  0  0  0  0  0  # atno 27334 bound_to 11356
  225.1783  395.6792 -113.9066 LP  0  0  0  0  0  0  0  0  0  0  0  0  # atno 27335 bound_to 11404
  230.4134  385.5846 -108.2440 LP  0  0  0  0  0  0  0  0  0  0  0  0  # atno 27336 bound_to 26007
  231.9754  385.5478 -107.7690 LP  0  0  0  0  0  0  0  0  0  0  0  0  # atno 27337 bound_to 26007
  236.5860  383.6355 -112.6579 LP  0  0  0  0  0  0  0  0  0  0  0  0  # atno 27338 bound_to 7265
  237.7349  384.2028 -113.8233 LP  0  0  0  0  0  0  0  0  0  0  0  0  # atno 27339 bound_to 7265
  229.2657  395.2517 -109.6013 LP  0  0  0  0  0  0  0  0  0  0  0  0  # atno 27343 bound_to 17273
  230.8649  395.6521 -107.7221 LP  0  0  0  0  0  0  0  0  0  0  0  0  # atno 27344 bound_to 17329
  231.0983  382.0912 -104.4409 LP  0  0  0  0  0  0  0  0  0  0  0  0  # atno 27345 bound_to 2414
  230.3158  382.8381 -105.7937 LP  0  0  0  0  0  0  0  0  0  0  0  0  # atno 27346 bound_to 2414
  232.3452  389.1852 -103.0957 LP  0  0  0  0  0  0  0  0  0  0  0  0  # atno 27347 bound_to 25996
  227.8757  394.1399 -105.6831 LP  0  0  0  0  0  0  0  0  0  0  0  0  # atno 27348 bound_to 17276
  229.3032  394.6704 -104.8580 LP  0  0  0  0  0  0  0  0  0  0  0  0  # atno 27349 bound_to 17276

> <Gold.Score>
     Fitness  S(hb_ext) S(vdw_ext)  S(hb_int)    S(int)      intcor
     26.92       0.13      19.52       0.00      -0.06      -0.76

> <Gold.Goldscore.Fitness>
26.9238

> <Gold.Goldscore.Internal.Vdw>
-0.4333

> <Gold.Goldscore.Internal.Torsion>
-0.3818

> <Gold.Goldscore.External.Vdw>
19.5243

> <Gold.Goldscore.Internal.HBond>
0.0000

> <Gold.Goldscore.External.HBond>
0.1346

> <Gold.Goldscore.Internal.Correction>
-0.7585

> <Gold.Goldscore.Hbonds>
donor molecule, donor type, donor heavy atom, donor atom, acceptor molecule, acceptor atom, score
      P1  H 11639 11689       L1    17  0.02

> <Gold.Goldscore.Internal.Vdw.Weighted>
-0.4333

> <Gold.Goldscore.Internal.Torsion.Weighted>
-0.3818

> <Gold.Goldscore.External.Vdw.Weighted>
26.8459

> <Gold.Goldscore.Internal.HBond.Weighted>
0.0000

> <Gold.Goldscore.External.HBond.Weighted>
0.1346

> <Gold.Goldscore.Internal.Correction.Weighted>
-0.7585

> <Gold.Rescore>
     Score     S(PLP)   S(hbond)     S(cho)   S(metal)  DE(clash)   DE(tors)     intcor
     34.61     -33.51       0.40       0.00       0.00       0.00       0.05       ----

> <Gold.PLP.Fitness>
34.6107

> <Gold.PLP.PLP>
-33.5144

> <Gold.PLP.part.hbond>
-1.0000

> <Gold.PLP.part.metal>
0.0000

> <Gold.PLP.part.buried>
-1.5142

> <Gold.PLP.part.nonpolar>
-31.3320

> <Gold.PLP.part.repulsive>
0.4063

> <Gold.PLP.ligand.clash>
0.0000

> <Gold.PLP.ligand.torsion>
0.0466

> <Gold.PLP.Chemscore.Hbond>
0.3965

> <Gold.PLP.Chemscore.CHOScore>
0.0000

> <Gold.PLP.Chemscore.Metal>
0.0000

> <Gold.Chemscore.Hbonds>
donor molecule, donor type, donor heavy atom, donor atom, acceptor molecule, acceptor atom, score
      P1  H 11639 11689       L1    17  0.01

> <Gold.PLP.Chemscore.Internal.Correction>
   9.000000E+99

