#       Name:                CT1002167954
#       Creating user name   hitesit
#       Creation time:       Sun Apr 16 02:35:16 2023


#       File generated by GOLD software.
#

@<TRIPOS>MOLECULE
CT1002167954|ligand_prepared|mol2|1|dock5
    29    30     1
SMALL
NO_CHARGES


@<TRIPOS>ATOM
      1 C1         229.7533 389.0511 -112.7874 C.3            1 RES1               0.0000
      2 C2         230.7951 389.4054 -113.8681 C.ar           1 RES1               0.0000
      3 C3         230.4065 388.0046 -111.8893 C.2            1 RES1               0.0000
      4 C4         229.4149 390.3569 -112.0767 C.2            1 RES1               0.0000
      5 C5         228.4408 388.4616 -113.3543 C.3            1 RES1               0.0000
      6 C6         232.1519 389.1955 -113.6403 C.ar           1 RES1               0.0000
      7 C7         230.4152 389.9395 -115.0965 C.ar           1 RES1               0.0000
      8 N8         230.8144 388.4015 -110.6500 N.am           1 RES1               0.0000
      9 O9         230.5966 386.8585 -112.2774 O.2            1 RES1               0.0000
     10 N10        229.7668 390.4801 -110.7581 N.am           1 RES1               0.0000
     11 O11        228.8617 391.2865 -112.6512 O.2            1 RES1               0.0000
     12 C12        227.4987 387.9254 -112.2879 C.3            1 RES1               0.0000
     13 C13        233.0945 389.5053 -114.6066 C.ar           1 RES1               0.0000
     14 C14        231.3595 390.2489 -116.0614 C.ar           1 RES1               0.0000
     15 C15        230.4786 389.5734 -110.0210 C.2            1 RES1               0.0000
     16 C16        232.6990 390.0318 -115.8178 C.ar           1 RES1               0.0000
     17 O17        230.8044 389.7793 -108.8554 O.2            1 RES1               0.0000
     18 H18        227.9211 389.2412 -113.9249 H              1 RES1               0.0000
     19 H19        228.6893 387.6483 -114.0471 H              1 RES1               0.0000
     20 H20        232.4822 388.7843 -112.6922 H              1 RES1               0.0000
     21 H21        229.3671 390.1197 -115.3097 H              1 RES1               0.0000
     22 H22        231.4257 387.7685 -110.1441 H              1 RES1               0.0000
     23 H23        229.4704 391.3261 -110.2818 H              1 RES1               0.0000
     24 H24        226.5939 387.5237 -112.7393 H              1 RES1               0.0000
     25 H25        227.9744 387.1305 -111.7173 H              1 RES1               0.0000
     26 H26        227.2108 388.7139 -111.5957 H              1 RES1               0.0000
     27 H27        234.1476 389.3339 -114.4094 H              1 RES1               0.0000
     28 H28        231.0438 390.6636 -117.0130 H              1 RES1               0.0000
     29 H29        233.4376 390.2741 -116.5748 H              1 RES1               0.0000
@<TRIPOS>BOND
    1    1    2 1     
    2    1    3 1     
    3    1    4 1     
    4    1    5 1     
    5    2    6 ar    
    6    2    7 ar    
    7    3    8 1     
    8    3    9 2     
    9    4   10 1     
   10    4   11 2     
   11    5   12 1     
   12    5   18 1     
   13    5   19 1     
   14    6   13 ar    
   15    6   20 1     
   16    7   14 ar    
   17    7   21 1     
   18    8   15 1     
   19    8   22 1     
   20   10   15 1     
   21   10   23 1     
   22   12   24 1     
   23   12   25 1     
   24   12   26 1     
   25   13   16 ar    
   26   13   27 1     
   27   14   16 ar    
   28   14   28 1     
   29   15   17 2     
   30   16   29 1     
@<TRIPOS>SUBSTRUCTURE
      1 RES1           1
@<TRIPOS>SET
DONOR_HYDROGENS      STATIC     ATOMS    <user>   **** ""
2 22 23
ATOM$RED        STATIC     ATOMS    COLORGROUP SYSTEM
2 22 23
@<TRIPOS>COMMENT
> <Gold.Version>
2022.3.0

> <Gold.Id.Protein>
unknown|7ts3_clean|pdb

> <Gold.Protein.RotatedTorsions>
[ 17136 17116 17117 17118 ] final -166.81 input   42.97 | X-H torsion
[ 17196 17162 17163 17164 ] final -148.93 input  102.93 | X-H torsion
[ 18266 18253 18254 18255 ] final   71.09 input   38.47 | X-H torsion
[ 18355 18311 18312 18313 ] final -131.45 input   32.37 | X-H torsion
[ 18440 18401 18402 18403 ] final  -88.62 input  104.02 | X-H torsion
[ 18448 18412 18411 18409 ] final   -1.69 input   60.03 | X-H torsion
[ 18508 18473 18474 18475 ] final  -68.37 input   98.64 | X-H torsion
[ 18655 18628 18629 18630 ] final -135.59 input  122.95 | X-H torsion
[ 7402 7386 7387 7388 ] final -158.05 input  101.82 | X-H torsion
[ 7448 7441 7442 7443 ] final  162.97 input   81.00 | X-H torsion
[ 18236 18215 18216 18217 ] final   79.88 input   34.45 | X-H torsion
[ 18542 18529 18530 18531 ] final -127.12 input  116.11 | X-H torsion
[ 10056 10030 10029 10026 ] final -102.86 input   60.02 | X-H torsion
[ 18240 18220 18219 18216 ] final  168.39 input   59.98 | X-H torsion
[ 18188 18150 18151 18152 ] final   87.44 input   43.88 | X-H torsion
[ 17244 17223 17224 17225 ] final  163.73 input   49.67 | X-H torsion
[ 10092 10072 10073 10074 ] final  169.08 input   21.26 | X-H torsion
[ 16940 16904 16903 16901 ] final  152.87 input   59.97 | X-H torsion
[ 11376 11356 11355 11352 ] final  135.82 input   60.02 | X-H torsion
[ 11437 11404 11405 11406 ] final   71.26 input   53.40 | X-H torsion
[ 26042 26007 26006 26004 ] final  -23.60 input   59.98 | X-H torsion
[ 17299 17273 17274 17275 ] final  129.17 input   71.10 | X-H torsion
[ 17364 17329 17330 17331 ] final  130.84 input   83.79 | X-H torsion
[ 26034 25996 25997 25998 ] final -156.06 input  104.01 | X-H torsion
[ 18726 18685 18686 18687 ] final  147.67 input   93.05 | X-H torsion
[ 22392 22358 22359 22360 ] final  -52.01 input   47.29 | X-H torsion
[ 27272 17069 17068 17067 ] final  140.30 input   -0.00 | X-H torsion
[ 27276 18153 18152 18151 ] final  120.39 input   -0.00 | X-H torsion
[ 27279 18256 18255 18254 ] final   -0.67 input   -0.00 | X-H torsion
[ 27282 18314 18313 18312 ] final -106.16 input    0.00 | X-H torsion
[ 27285 18404 18403 18402 ] final  -58.78 input   -0.00 | X-H torsion
[ 27290 18476 18475 18474 ] final  -30.33 input   -0.00 | X-H torsion
[ 27304 18218 18217 18216 ] final -171.33 input   -0.00 | X-H torsion
[ 27306 16956 16955 16954 ] final  -25.17 input   -0.00 | X-H torsion
[ 27311 16996 16995 16994 ] final   16.76 input    0.00 | X-H torsion
[ 27315 17119 17118 17117 ] final   64.90 input    0.00 | X-H torsion
[ 27317 17165 17164 17163 ] final   95.72 input    0.00 | X-H torsion
[ 27322 10075 10074 10073 ] final   43.87 input   -0.00 | X-H torsion
[ 27324 11354 11353 11352 ] final  -28.20 input    0.00 | X-H torsion
[ 27338 7265 7264 7263 ] final   20.93 input   -0.00 | X-H torsion
[ 27345 2414 2413 2412 ] final  145.34 input    0.00 | X-H torsion
[ 27348 17276 17275 17274 ] final  -61.75 input   -0.00 | X-H torsion

> <Gold.Protein.ActiveResidues>
 MET341  HIS342  TRP414  ARG419  CYS420  VAL421  GLY422  LEU429  LEU460  SER462 
 ALA463  ILE464  SER482  GLN483  ARG486  TYR567  GLY568  LEU569  PRO570  ALA571 
 VAL572  SER573  ASN574  MET575  PRO588  PHE589  SER590  GLY591  TRP592  TYR593 
 MET594  GLY595  GLU597  ILE598  ARG601  ASP602  ARG608  ILE653  VAL654  TRP683 
 PHE709  TYR711  HEM801  H4B802 

> <Gold.Protein.RotatedAtoms>
  239.6663  384.3147 -114.6761 H   0  0  0  0  0  0  0  0  0  0  0  0  # atno 7402 bound_to 7386
  240.5951  386.2971 -117.2598 H   0  0  0  0  0  0  0  0  0  0  0  0  # atno 7448 bound_to 7441
  241.2828  395.2514 -118.3035 H   0  0  0  0  0  0  0  0  0  0  0  0  # atno 10056 bound_to 10030
  240.4354  399.6104 -117.7012 H   0  0  0  0  0  0  0  0  0  0  0  0  # atno 10092 bound_to 10072
  224.2456  392.5133 -113.3469 H   0  0  0  0  0  0  0  0  0  0  0  0  # atno 11376 bound_to 11356
  225.2521  395.3073 -114.0553 H   0  0  0  0  0  0  0  0  0  0  0  0  # atno 11437 bound_to 11404
  225.4306  393.0001 -119.8608 H   0  0  0  0  0  0  0  0  0  0  0  0  # atno 16940 bound_to 16904
  232.1755  395.7627 -118.4303 H   0  0  0  0  0  0  0  0  0  0  0  0  # atno 17136 bound_to 17116
  231.5101  395.1110 -115.2939 H   0  0  0  0  0  0  0  0  0  0  0  0  # atno 17196 bound_to 17162
  230.1186  396.4807 -112.5701 H   0  0  0  0  0  0  0  0  0  0  0  0  # atno 17244 bound_to 17223
  228.4803  395.6853 -109.9015 H   0  0  0  0  0  0  0  0  0  0  0  0  # atno 17299 bound_to 17273
  230.5558  394.8134 -108.0345 H   0  0  0  0  0  0  0  0  0  0  0  0  # atno 17364 bound_to 17329
  234.1422  397.6875 -111.7800 H   0  0  0  0  0  0  0  0  0  0  0  0  # atno 18188 bound_to 18150
  236.6267  398.3970 -115.3252 H   0  0  0  0  0  0  0  0  0  0  0  0  # atno 18236 bound_to 18215
  235.7973  399.7677 -118.5368 H   0  0  0  0  0  0  0  0  0  0  0  0  # atno 18240 bound_to 18220
  236.2260  394.9277 -118.0936 H   0  0  0  0  0  0  0  0  0  0  0  0  # atno 18266 bound_to 18253
  237.3229  394.4538 -120.5789 H   0  0  0  0  0  0  0  0  0  0  0  0  # atno 18355 bound_to 18311
  236.1130  391.8268 -122.4014 H   0  0  0  0  0  0  0  0  0  0  0  0  # atno 18440 bound_to 18401
  228.5861  392.6226 -121.4742 H   0  0  0  0  0  0  0  0  0  0  0  0  # atno 18448 bound_to 18412
  235.5595  388.7898 -123.5760 H   0  0  0  0  0  0  0  0  0  0  0  0  # atno 18508 bound_to 18473
  235.0614  386.5330 -125.2369 H   0  0  0  0  0  0  0  0  0  0  0  0  # atno 18542 bound_to 18529
  231.8771  383.5908 -122.3494 H   0  0  0  0  0  0  0  0  0  0  0  0  # atno 18655 bound_to 18628
  230.1138  386.6975 -123.5275 H   0  0  0  0  0  0  0  0  0  0  0  0  # atno 18726 bound_to 18685
  237.5612  388.3680 -127.5758 H   0  0  0  0  0  0  0  0  0  0  0  0  # atno 22392 bound_to 22358
  232.5561  389.9975 -103.9684 H   0  0  0  0  0  0  0  0  0  0  0  0  # atno 26034 bound_to 25996
  232.0158  385.6103 -107.7938 H   0  0  0  0  0  0  0  0  0  0  0  0  # atno 26042 bound_to 26007
  234.0920  396.2365 -117.9476 LP  0  0  0  0  0  0  0  0  0  0  0  0  # atno 27272 bound_to 17069
  234.3232  394.6014 -118.4702 LP  0  0  0  0  0  0  0  0  0  0  0  0  # atno 27273 bound_to 17069
  230.8023  395.1835 -117.5106 LP  0  0  0  0  0  0  0  0  0  0  0  0  # atno 27274 bound_to 17116
  232.5205  396.1795 -114.3454 LP  0  0  0  0  0  0  0  0  0  0  0  0  # atno 27275 bound_to 17162
  233.6179  396.9631 -115.2244 LP  0  0  0  0  0  0  0  0  0  0  0  0  # atno 27276 bound_to 18153
  234.1352  395.9233 -113.9395 LP  0  0  0  0  0  0  0  0  0  0  0  0  # atno 27277 bound_to 18153
  236.9810  396.5085 -118.0351 LP  0  0  0  0  0  0  0  0  0  0  0  0  # atno 27278 bound_to 18253
  236.9179  396.6746 -120.7509 LP  0  0  0  0  0  0  0  0  0  0  0  0  # atno 27279 bound_to 18256
  236.6364  395.6362 -122.1082 LP  0  0  0  0  0  0  0  0  0  0  0  0  # atno 27280 bound_to 18256
  238.2684  392.9916 -120.7028 LP  0  0  0  0  0  0  0  0  0  0  0  0  # atno 27281 bound_to 18311
  237.5999  390.3551 -121.7784 LP  0  0  0  0  0  0  0  0  0  0  0  0  # atno 27282 bound_to 18314
  236.6855  391.1195 -120.5216 LP  0  0  0  0  0  0  0  0  0  0  0  0  # atno 27283 bound_to 18314
  235.4367  392.1126 -123.9871 LP  0  0  0  0  0  0  0  0  0  0  0  0  # atno 27284 bound_to 18401
  236.0803  389.5316 -125.5389 LP  0  0  0  0  0  0  0  0  0  0  0  0  # atno 27285 bound_to 18404
  237.4743  389.1325 -124.5914 LP  0  0  0  0  0  0  0  0  0  0  0  0  # atno 27286 bound_to 18404
  229.1735  391.8896 -120.1455 LP  0  0  0  0  0  0  0  0  0  0  0  0  # atno 27287 bound_to 18412
  228.2581  391.0514 -121.2066 LP  0  0  0  0  0  0  0  0  0  0  0  0  # atno 27288 bound_to 18412
  235.6848  388.0663 -121.9881 LP  0  0  0  0  0  0  0  0  0  0  0  0  # atno 27289 bound_to 18473
  233.3953  386.6616 -122.7933 LP  0  0  0  0  0  0  0  0  0  0  0  0  # atno 27290 bound_to 18476
  232.6952  386.7251 -124.3762 LP  0  0  0  0  0  0  0  0  0  0  0  0  # atno 27291 bound_to 18476
  231.5267  384.7782 -123.5788 LP  0  0  0  0  0  0  0  0  0  0  0  0  # atno 27292 bound_to 18628
  239.7476  385.8410 -115.5204 LP  0  0  0  0  0  0  0  0  0  0  0  0  # atno 27301 bound_to 7386
  241.9082  386.3210 -116.1115 LP  0  0  0  0  0  0  0  0  0  0  0  0  # atno 27302 bound_to 7441
  236.0296  396.9049 -114.6436 LP  0  0  0  0  0  0  0  0  0  0  0  0  # atno 27303 bound_to 18215
  239.0805  396.6611 -117.5789 LP  0  0  0  0  0  0  0  0  0  0  0  0  # atno 27304 bound_to 18218
  238.3424  397.4872 -116.2474 LP  0  0  0  0  0  0  0  0  0  0  0  0  # atno 27305 bound_to 18218
  233.2354  394.5269 -125.1879 LP  0  0  0  0  0  0  0  0  0  0  0  0  # atno 27306 bound_to 16956
  233.7018  395.5717 -123.8876 LP  0  0  0  0  0  0  0  0  0  0  0  0  # atno 27307 bound_to 16956
  235.1287  384.8023 -125.0269 LP  0  0  0  0  0  0  0  0  0  0  0  0  # atno 27308 bound_to 18529
  242.8027  395.5724 -118.7880 LP  0  0  0  0  0  0  0  0  0  0  0  0  # atno 27309 bound_to 10030
  241.5332  396.1870 -119.6111 LP  0  0  0  0  0  0  0  0  0  0  0  0  # atno 27310 bound_to 10030
  229.9702  397.1353 -121.3434 LP  0  0  0  0  0  0  0  0  0  0  0  0  # atno 27311 bound_to 16996
  230.3374  396.2120 -119.9247 LP  0  0  0  0  0  0  0  0  0  0  0  0  # atno 27312 bound_to 16996
  237.0173  398.7528 -118.1764 LP  0  0  0  0  0  0  0  0  0  0  0  0  # atno 27313 bound_to 18220
  236.3286  399.6554 -117.0028 LP  0  0  0  0  0  0  0  0  0  0  0  0  # atno 27314 bound_to 18220
  229.3079  396.4051 -115.7515 LP  0  0  0  0  0  0  0  0  0  0  0  0  # atno 27315 bound_to 17119
  229.8081  397.3070 -114.3600 LP  0  0  0  0  0  0  0  0  0  0  0  0  # atno 27316 bound_to 17119
  232.3559  397.6137 -112.3513 LP  0  0  0  0  0  0  0  0  0  0  0  0  # atno 27317 bound_to 17165
  232.7971  396.3844 -111.2138 LP  0  0  0  0  0  0  0  0  0  0  0  0  # atno 27318 bound_to 17165
  234.1011  399.2672 -112.5304 LP  0  0  0  0  0  0  0  0  0  0  0  0  # atno 27319 bound_to 18150
  229.9113  395.4575 -111.1703 LP  0  0  0  0  0  0  0  0  0  0  0  0  # atno 27320 bound_to 17223
  239.6676  398.6480 -116.4655 LP  0  0  0  0  0  0  0  0  0  0  0  0  # atno 27321 bound_to 10072
  238.5555  398.5456 -115.1529 LP  0  0  0  0  0  0  0  0  0  0  0  0  # atno 27322 bound_to 10075
  237.3650  399.5479 -114.3925 LP  0  0  0  0  0  0  0  0  0  0  0  0  # atno 27323 bound_to 10075
  227.8341  395.0777 -111.1090 LP  0  0  0  0  0  0  0  0  0  0  0  0  # atno 27324 bound_to 11354
  228.2897  394.7074 -112.7385 LP  0  0  0  0  0  0  0  0  0  0  0  0  # atno 27325 bound_to 11354
  226.9310  393.3765 -119.3558 LP  0  0  0  0  0  0  0  0  0  0  0  0  # atno 27328 bound_to 16904
  226.6989  392.1143 -120.3655 LP  0  0  0  0  0  0  0  0  0  0  0  0  # atno 27329 bound_to 16904
  224.3440  394.1197 -113.5841 LP  0  0  0  0  0  0  0  0  0  0  0  0  # atno 27333 bound_to 11356
  223.0188  393.4747 -112.8809 LP  0  0  0  0  0  0  0  0  0  0  0  0  # atno 27334 bound_to 11356
  226.3142  395.5234 -112.6828 LP  0  0  0  0  0  0  0  0  0  0  0  0  # atno 27335 bound_to 11404
  231.3583  386.7740 -108.7215 LP  0  0  0  0  0  0  0  0  0  0  0  0  # atno 27336 bound_to 26007
  230.4424  385.5271 -108.1994 LP  0  0  0  0  0  0  0  0  0  0  0  0  # atno 27337 bound_to 26007
  236.5915  383.6222 -112.6591 LP  0  0  0  0  0  0  0  0  0  0  0  0  # atno 27338 bound_to 7265
  237.7295  384.2160 -113.8220 LP  0  0  0  0  0  0  0  0  0  0  0  0  # atno 27339 bound_to 7265
  229.7684  396.5007 -109.0514 LP  0  0  0  0  0  0  0  0  0  0  0  0  # atno 27343 bound_to 17273
  229.8116  395.6668 -106.7114 LP  0  0  0  0  0  0  0  0  0  0  0  0  # atno 27344 bound_to 17329
  230.3110  383.1529 -104.7717 LP  0  0  0  0  0  0  0  0  0  0  0  0  # atno 27345 bound_to 2414
  231.1031  381.7764 -105.4629 LP  0  0  0  0  0  0  0  0  0  0  0  0  # atno 27346 bound_to 2414
  232.4262  390.0761 -102.2279 LP  0  0  0  0  0  0  0  0  0  0  0  0  # atno 27347 bound_to 25996
  228.3130  395.1938 -105.0436 LP  0  0  0  0  0  0  0  0  0  0  0  0  # atno 27348 bound_to 17276
  228.8658  393.6164 -105.4975 LP  0  0  0  0  0  0  0  0  0  0  0  0  # atno 27349 bound_to 17276

> <Gold.Score>
     Fitness  S(hb_ext) S(vdw_ext)  S(hb_int)    S(int)      intcor
     39.29       9.82      22.18       0.00      -1.03      -0.76

> <Gold.Goldscore.Fitness>
39.2896

> <Gold.Goldscore.Internal.Vdw>
-1.3059

> <Gold.Goldscore.Internal.Torsion>
-0.4836

> <Gold.Goldscore.External.Vdw>
22.1815

> <Gold.Goldscore.Internal.HBond>
0.0000

> <Gold.Goldscore.External.HBond>
9.8177

> <Gold.Goldscore.Internal.Correction>
-0.7617

> <Gold.Goldscore.Hbonds>
donor molecule, donor type, donor heavy atom, donor atom, acceptor molecule, acceptor atom, score
      L1  H     8    22       P1 26959  0.90
      L1  H    10    23       P1 17280  0.74

> <Gold.Goldscore.Internal.Vdw.Weighted>
-1.3059

> <Gold.Goldscore.Internal.Torsion.Weighted>
-0.4836

> <Gold.Goldscore.External.Vdw.Weighted>
30.4996

> <Gold.Goldscore.Internal.HBond.Weighted>
0.0000

> <Gold.Goldscore.External.HBond.Weighted>
9.8177

> <Gold.Goldscore.Internal.Correction.Weighted>
-0.7617

> <Gold.Rescore>
     Score     S(PLP)   S(hbond)     S(cho)   S(metal)  DE(clash)   DE(tors)     intcor
     26.81     -28.17       0.30       0.00       0.00       0.00       1.13       ----

> <Gold.PLP.Fitness>
26.8052

> <Gold.PLP.PLP>
-28.1661

> <Gold.PLP.part.hbond>
-0.7478

> <Gold.PLP.part.metal>
0.0000

> <Gold.PLP.part.buried>
-1.4237

> <Gold.PLP.part.nonpolar>
-28.2167

> <Gold.PLP.part.repulsive>
2.4672

> <Gold.PLP.ligand.clash>
0.0000

> <Gold.PLP.ligand.torsion>
1.1297

> <Gold.PLP.Chemscore.Hbond>
0.2995

> <Gold.PLP.Chemscore.CHOScore>
0.0000

> <Gold.PLP.Chemscore.Metal>
0.0000

> <Gold.Chemscore.Hbonds>
donor molecule, donor type, donor heavy atom, donor atom, acceptor molecule, acceptor atom, score
      L1  H     8    22       P1 26959  0.59
      L1  H    10    23       P1 17280  0.05

> <Gold.PLP.Chemscore.Internal.Correction>
   9.000000E+99

