#       Name:                CT1002167954
#       Creating user name   hitesit
#       Creation time:       Sun Apr 16 20:15:53 2023


#       File generated by GOLD software.
#

@<TRIPOS>MOLECULE
CT1002167954|ligand_prepared|mol2|1|dock1
    29    30     1
SMALL
NO_CHARGES


@<TRIPOS>ATOM
      1 C1         128.2782 142.8539  98.1624 C.3            1 RES1               0.0000
      2 C2         129.4008 142.8045  99.2188 C.ar           1 RES1               0.0000
      3 C3         128.5641 144.0727  97.2900 C.2            1 RES1               0.0000
      4 C4         128.3370 141.5263  97.4150 C.2            1 RES1               0.0000
      5 C5         126.8609 143.0015  98.7633 C.3            1 RES1               0.0000
      6 C6         129.1689 143.2397 100.5202 C.ar           1 RES1               0.0000
      7 C7         130.6704 142.3247  98.9082 C.ar           1 RES1               0.0000
      8 N8         129.0470 143.8514  96.0340 N.am           1 RES1               0.0000
      9 O9         128.4056 145.2117  97.7118 O.2            1 RES1               0.0000
     10 N10        128.6818 141.5507  96.0890 N.am           1 RES1               0.0000
     11 O11        128.1040 140.4577  97.9665 O.2            1 RES1               0.0000
     12 C12        125.7424 142.7905  97.7550 C.3            1 RES1               0.0000
     13 C13        130.1691 143.1942 101.4772 C.ar           1 RES1               0.0000
     14 C14        131.6693 142.2802  99.8667 C.ar           1 RES1               0.0000
     15 C15        129.0694 142.6500  95.3724 C.2            1 RES1               0.0000
     16 C16        131.4197 142.7141 101.1513 C.ar           1 RES1               0.0000
     17 O17        129.4178 142.5837  94.1971 O.2            1 RES1               0.0000
     18 H18        126.7448 142.2747  99.5767 H              1 RES1               0.0000
     19 H19        126.7629 144.0055  99.1943 H              1 RES1               0.0000
     20 H20        128.1918 143.6230 100.7945 H              1 RES1               0.0000
     21 H21        130.8899 141.9791  97.9037 H              1 RES1               0.0000
     22 H22        129.4268 144.6534  95.5411 H              1 RES1               0.0000
     23 H23        128.6461 140.6675  95.5899 H              1 RES1               0.0000
     24 H24        124.7696 142.9053  98.2284 H              1 RES1               0.0000
     25 H25        125.8123 143.5130  96.9446 H              1 RES1               0.0000
     26 H26        125.7942 141.7925  97.3247 H              1 RES1               0.0000
     27 H27        129.9680 143.5381 102.4864 H              1 RES1               0.0000
     28 H28        132.6522 141.9022  99.6057 H              1 RES1               0.0000
     29 H29        132.2029 142.6782 101.9013 H              1 RES1               0.0000
@<TRIPOS>BOND
    1    1    2 1     
    2    1    3 1     
    3    1    4 1     
    4    1    5 1     
    5    2    6 ar    
    6    2    7 ar    
    7    3    8 1     
    8    3    9 2     
    9    4   10 1     
   10    4   11 2     
   11    5   12 1     
   12    5   18 1     
   13    5   19 1     
   14    6   13 ar    
   15    6   20 1     
   16    7   14 ar    
   17    7   21 1     
   18    8   15 1     
   19    8   22 1     
   20   10   15 1     
   21   10   23 1     
   22   12   24 1     
   23   12   25 1     
   24   12   26 1     
   25   13   16 ar    
   26   13   27 1     
   27   14   16 ar    
   28   14   28 1     
   29   15   17 2     
   30   16   29 1     
@<TRIPOS>SUBSTRUCTURE
      1 RES1           1
@<TRIPOS>SET
DONOR_HYDROGENS      STATIC     ATOMS    <user>   **** ""
2 22 23
ATOM$RED        STATIC     ATOMS    COLORGROUP SYSTEM
2 22 23
@<TRIPOS>COMMENT
> <Gold.Version>
2022.3.0

> <Gold.Id.Protein>
unknown|7rmh_clean|pdb

> <Gold.Protein.RotatedTorsions>
[ 6069 6060 6061 6062 ] final  102.25 input   58.43 | X-H torsion
[ 6095 6088 6089 6090 ] final  102.04 input   80.40 | X-H torsion
[ 12696 12688 12689 12690 ] final  162.71 input   27.23 | X-H torsion
[ 12955 12944 12943 12942 ] final  141.02 input   60.02 | X-H torsion
[  130  121  122  123 ] final   72.55 input   59.99 | X-H torsion
[ 10541 10525 10526 10527 ] final  -56.49 input   86.97 | X-H torsion
[ 12729 12724 12723 12720 ] final    9.03 input   60.00 | X-H torsion
[ 7603 7585 7586 7587 ] final  -80.11 input   21.72 | X-H torsion
[ 14135 14126 14127 14128 ] final   63.91 input  100.92 | X-H torsion
[ 11478 11469 11468 11466 ] final  156.79 input   60.02 | X-H torsion
[ 14106 14097 14096 14094 ] final -153.30 input   60.00 | X-H torsion
[ 14257 14248 14247 14245 ] final  120.09 input   60.01 | X-H torsion
[ 12659 12654 12653 12650 ] final  137.71 input   60.00 | X-H torsion
[ 11470 11458 11459 11460 ] final -152.88 input   94.06 | X-H torsion
[ 4835 4821 4822 4823 ] final  139.28 input   91.76 | X-H torsion
[ 4838 4826 4825 4822 ] final  -68.29 input   59.99 | X-H torsion
[ 13071 13062 13061 13059 ] final -141.23 input   60.03 | X-H torsion
[ 6481 6474 6475 6476 ] final  -82.97 input  103.68 | X-H torsion
[ 13126 13119 13120 13121 ] final -130.38 input  114.72 | X-H torsion
[ 13129 13124 13123 13120 ] final  125.27 input   59.98 | X-H torsion
[ 14703 6063 6062 6061 ] final  -80.96 input    0.00 | X-H torsion
[ 14710 6091 6090 6089 ] final  -39.73 input   -0.00 | X-H torsion
[ 14727  124  123  122 ] final   -3.11 input   -0.00 | X-H torsion
[ 14734 7588 7587 7586 ] final  108.33 input    0.00 | X-H torsion
[ 14820 6477 6476 6475 ] final   17.13 input   -0.00 | X-H torsion

> <Gold.Protein.ActiveResidues>
 ASN23   THR86   GLU172  THR173  VAL200  LYS280  GLN24   PHE25   GLN27   MET81  
 PHE84   ASN85   VAL88   ASN89   TYR92   ALA93   VAL94   HIS95   ASN96   GLU97  
 TRP98   TYR100  CYS105  HIS108  ASN109  PRO112  ILE113  VAL116  PHE117  LEU161 
 ALA162  GLN165  SER169  THR170  MET174  PRO175  SER176  ARG177  VAL178  VAL179 
 CYS180  MET181  ILE182  GLU183  TRP184  LYS190  TYR196  HIS197  THR201  ILE204 
 TRP261  PHE264  HIS265  PHE267  PHE268  LEU269  PRO271  PRO275  LEU277  TYR278 
 LEU279  LYS281  PHE282  ILE283  GLN284  GLN285  VAL286  TYR287  LEU288  ILE290 
 MET291  ALA294  MET295 

> <Gold.Protein.RotatedAtoms>
  118.7868  149.9642   87.5958 H   0  0  0  0  0  0  0  0  0  0  0  0  # atno 130  bound_to 121 
  120.3833  150.2176   87.2306 H   0  0  0  0  0  0  0  0  0  0  0  0  # atno 131  bound_to 121 
  127.4782  145.8846  113.5162 H   0  0  0  0  0  0  0  0  0  0  0  0  # atno 4835 bound_to 4821
  126.5131  142.9466  113.0936 H   0  0  0  0  0  0  0  0  0  0  0  0  # atno 4838 bound_to 4826
  132.4357  155.9578   95.7843 H   0  0  0  0  0  0  0  0  0  0  0  0  # atno 6069 bound_to 6060
  130.9011  158.9041   92.6356 H   0  0  0  0  0  0  0  0  0  0  0  0  # atno 6095 bound_to 6088
  146.1915  138.4243  106.8198 H   0  0  0  0  0  0  0  0  0  0  0  0  # atno 6481 bound_to 6474
  124.9300  140.4059   90.5617 H   0  0  0  0  0  0  0  0  0  0  0  0  # atno 7603 bound_to 7585
  119.6720  147.8068   90.1054 H   0  0  0  0  0  0  0  0  0  0  0  0  # atno 10541 bound_to 10525
  123.1368  150.3810  105.1004 H   0  0  0  0  0  0  0  0  0  0  0  0  # atno 11470 bound_to 11458
  129.4027  149.6096   98.8698 H   0  0  0  0  0  0  0  0  0  0  0  0  # atno 11478 bound_to 11469
  135.5236  153.6955  102.9698 H   0  0  0  0  0  0  0  0  0  0  0  0  # atno 12659 bound_to 12654
  128.3856  156.7867   91.0829 H   0  0  0  0  0  0  0  0  0  0  0  0  # atno 12696 bound_to 12688
  121.2738  154.0108   90.0174 H   0  0  0  0  0  0  0  0  0  0  0  0  # atno 12729 bound_to 12724
  139.8235  143.2768   91.5457 H   0  0  0  0  0  0  0  0  0  0  0  0  # atno 12955 bound_to 12944
  139.9529  142.2942   90.2177 H   0  0  0  0  0  0  0  0  0  0  0  0  # atno 12956 bound_to 12944
  140.4726  141.7591   91.6979 H   0  0  0  0  0  0  0  0  0  0  0  0  # atno 12957 bound_to 12944
  141.9036  144.6557  106.5471 H   0  0  0  0  0  0  0  0  0  0  0  0  # atno 13071 bound_to 13062
  142.7926  137.8536  107.0290 H   0  0  0  0  0  0  0  0  0  0  0  0  # atno 13126 bound_to 13119
  142.0387  135.9226  104.1406 H   0  0  0  0  0  0  0  0  0  0  0  0  # atno 13129 bound_to 13124
  133.0335  139.7291   98.0743 H   0  0  0  0  0  0  0  0  0  0  0  0  # atno 14106 bound_to 14097
  121.3496  138.1510   91.8802 H   0  0  0  0  0  0  0  0  0  0  0  0  # atno 14135 bound_to 14126
  128.5556  144.5455  104.0703 H   0  0  0  0  0  0  0  0  0  0  0  0  # atno 14257 bound_to 14248
  132.0530  157.6147   96.2011 LP  0  0  0  0  0  0  0  0  0  0  0  0  # atno 14702 bound_to 6060
  129.6171  155.6070   94.0158 LP  0  0  0  0  0  0  0  0  0  0  0  0  # atno 14703 bound_to 6063
  129.1772  156.9392   95.0316 LP  0  0  0  0  0  0  0  0  0  0  0  0  # atno 14704 bound_to 6063
  130.5368  157.2955   93.2244 LP  0  0  0  0  0  0  0  0  0  0  0  0  # atno 14709 bound_to 6088
  130.4605  157.9496   90.0587 LP  0  0  0  0  0  0  0  0  0  0  0  0  # atno 14710 bound_to 6091
  129.8305  156.3707   89.7269 LP  0  0  0  0  0  0  0  0  0  0  0  0  # atno 14711 bound_to 6091
  119.7290  148.7148   87.0887 LP  0  0  0  0  0  0  0  0  0  0  0  0  # atno 14720 bound_to 121 
  117.6348  149.0207   89.6832 LP  0  0  0  0  0  0  0  0  0  0  0  0  # atno 14727 bound_to 124 
  117.6117  147.3416   90.1078 LP  0  0  0  0  0  0  0  0  0  0  0  0  # atno 14728 bound_to 124 
  120.2344  154.1425   88.7724 LP  0  0  0  0  0  0  0  0  0  0  0  0  # atno 14729 bound_to 12724
  119.7176  153.5785   90.2151 LP  0  0  0  0  0  0  0  0  0  0  0  0  # atno 14730 bound_to 12724
  125.6222  138.8241   90.8442 LP  0  0  0  0  0  0  0  0  0  0  0  0  # atno 14733 bound_to 7585
  123.5942  140.5514   93.4608 LP  0  0  0  0  0  0  0  0  0  0  0  0  # atno 14734 bound_to 7588
  124.3730  139.0087   93.5762 LP  0  0  0  0  0  0  0  0  0  0  0  0  # atno 14735 bound_to 7588
  128.6058  150.9729   98.4771 LP  0  0  0  0  0  0  0  0  0  0  0  0  # atno 14738 bound_to 11469
  128.0251  149.5204   98.0084 LP  0  0  0  0  0  0  0  0  0  0  0  0  # atno 14739 bound_to 11469
  133.7358  138.3964   97.4577 LP  0  0  0  0  0  0  0  0  0  0  0  0  # atno 14744 bound_to 14097
  132.2344  138.3112   98.0945 LP  0  0  0  0  0  0  0  0  0  0  0  0  # atno 14745 bound_to 14097
  129.6186  143.5009  104.7238 LP  0  0  0  0  0  0  0  0  0  0  0  0  # atno 14762 bound_to 14248
  128.1523  143.7144  105.4100 LP  0  0  0  0  0  0  0  0  0  0  0  0  # atno 14763 bound_to 14248
  135.9318  154.3660  101.5444 LP  0  0  0  0  0  0  0  0  0  0  0  0  # atno 14798 bound_to 12654
  136.1250  155.2071  102.9307 LP  0  0  0  0  0  0  0  0  0  0  0  0  # atno 14799 bound_to 12654
  127.3727  146.8922  112.0979 LP  0  0  0  0  0  0  0  0  0  0  0  0  # atno 14808 bound_to 4821
  125.9795  143.1759  114.6139 LP  0  0  0  0  0  0  0  0  0  0  0  0  # atno 14809 bound_to 4826
  127.1392  144.1463  113.9976 LP  0  0  0  0  0  0  0  0  0  0  0  0  # atno 14810 bound_to 4826
  142.6261  146.1090  106.4289 LP  0  0  0  0  0  0  0  0  0  0  0  0  # atno 14815 bound_to 13062
  143.2387  144.9678  107.4234 LP  0  0  0  0  0  0  0  0  0  0  0  0  # atno 14816 bound_to 13062
  142.9959  138.4237  109.7177 LP  0  0  0  0  0  0  0  0  0  0  0  0  # atno 14820 bound_to 6477
  142.7249  136.7636  109.3046 LP  0  0  0  0  0  0  0  0  0  0  0  0  # atno 14821 bound_to 6477
  145.1023  139.1283  105.6597 LP  0  0  0  0  0  0  0  0  0  0  0  0  # atno 14822 bound_to 6474
  141.4276  136.6553  105.4588 LP  0  0  0  0  0  0  0  0  0  0  0  0  # atno 14827 bound_to 13124
  140.7298  135.2978  104.8784 LP  0  0  0  0  0  0  0  0  0  0  0  0  # atno 14828 bound_to 13124

> <Gold.Score>
     Fitness  S(hb_ext) S(vdw_ext)  S(hb_int)    S(int)      intcor
     32.98       0.00      24.40       0.00      -0.56      -0.76

> <Gold.Goldscore.Fitness>
32.9817

> <Gold.Goldscore.Internal.Vdw>
-0.7841

> <Gold.Goldscore.Internal.Torsion>
-0.5456

> <Gold.Goldscore.External.Vdw>
24.3974

> <Gold.Goldscore.Internal.HBond>
0.0000

> <Gold.Goldscore.External.HBond>
0.0000

> <Gold.Goldscore.Internal.Correction>
-0.7650

> <Gold.Goldscore.Internal.Vdw.Weighted>
-0.7841

> <Gold.Goldscore.Internal.Torsion.Weighted>
-0.5456

> <Gold.Goldscore.External.Vdw.Weighted>
33.5465

> <Gold.Goldscore.Internal.HBond.Weighted>
0.0000

> <Gold.Goldscore.External.HBond.Weighted>
0.0000

> <Gold.Goldscore.Internal.Correction.Weighted>
-0.7650

> <Gold.Rescore>
     Score     S(PLP)   S(hbond)     S(cho)   S(metal)  DE(clash)   DE(tors)     intcor
     37.82     -38.33       0.00       0.00       0.00       0.00       0.25       ----

> <Gold.PLP.Fitness>
37.8237

> <Gold.PLP.PLP>
-38.3304

> <Gold.PLP.part.hbond>
-0.1264

> <Gold.PLP.part.metal>
0.0000

> <Gold.PLP.part.buried>
-4.8036

> <Gold.PLP.part.nonpolar>
-34.5213

> <Gold.PLP.part.repulsive>
0.9720

> <Gold.PLP.ligand.clash>
0.0000

> <Gold.PLP.ligand.torsion>
0.2534

> <Gold.PLP.Chemscore.Hbond>
0.0000

> <Gold.PLP.Chemscore.CHOScore>
0.0000

> <Gold.PLP.Chemscore.Metal>
0.0000

> <Gold.PLP.Chemscore.Internal.Correction>
   9.000000E+99

