#       Name:                CT1002167954
#       Creating user name   hitesit
#       Creation time:       Sun Apr 16 20:16:05 2023


#       File generated by GOLD software.
#

@<TRIPOS>MOLECULE
CT1002167954|ligand_prepared|mol2|1|dock8
    29    30     1
SMALL
NO_CHARGES


@<TRIPOS>ATOM
      1 C1         127.0447 143.2200  98.7685 C.3            1 RES1               0.0000
      2 C2         127.3699 144.0835 100.0044 C.ar           1 RES1               0.0000
      3 C3         125.6215 143.5830  98.3548 C.2            1 RES1               0.0000
      4 C4         128.1016 143.5569  97.7226 C.2            1 RES1               0.0000
      5 C5         127.1054 141.6981  99.0361 C.3            1 RES1               0.0000
      6 C6         128.5895 143.9496 100.6612 C.ar           1 RES1               0.0000
      7 C7         126.4632 145.0183 100.4969 C.ar           1 RES1               0.0000
      8 N8         125.4641 144.3472  97.2362 N.am           1 RES1               0.0000
      9 O9         124.6543 143.2372  99.0219 O.2            1 RES1               0.0000
     10 N10        127.6919 144.1808  96.5734 N.am           1 RES1               0.0000
     11 O11        129.2880 143.3027  97.8905 O.2            1 RES1               0.0000
     12 C12        126.9017 140.8482  97.7917 C.3            1 RES1               0.0000
     13 C13        128.8929 144.7243 101.7685 C.ar           1 RES1               0.0000
     14 C14        126.7685 145.7919 101.6045 C.ar           1 RES1               0.0000
     15 C15        126.4255 144.6188  96.2962 C.2            1 RES1               0.0000
     16 C16        127.9830 145.6461 102.2406 C.ar           1 RES1               0.0000
     17 O17        126.1456 145.2210  95.2637 O.2            1 RES1               0.0000
     18 H18        128.0815 141.4552  99.4737 H              1 RES1               0.0000
     19 H19        126.3341 141.4378  99.7714 H              1 RES1               0.0000
     20 H20        129.3171 143.2277 100.3057 H              1 RES1               0.0000
     21 H21        125.5012 145.1494 100.0130 H              1 RES1               0.0000
     22 H22        124.5468 144.7544  97.0847 H              1 RES1               0.0000
     23 H23        128.3960 144.3327  95.8583 H              1 RES1               0.0000
     24 H24        126.9537 139.7891  98.0353 H              1 RES1               0.0000
     25 H25        125.9298 141.0457  97.3445 H              1 RES1               0.0000
     26 H26        127.6668 141.0630  97.0485 H              1 RES1               0.0000
     27 H27        129.8495 144.6048 102.2664 H              1 RES1               0.0000
     28 H28        126.0491 146.5157 101.9730 H              1 RES1               0.0000
     29 H29        128.2211 146.2531 103.1079 H              1 RES1               0.0000
@<TRIPOS>BOND
    1    1    2 1     
    2    1    3 1     
    3    1    4 1     
    4    1    5 1     
    5    2    6 ar    
    6    2    7 ar    
    7    3    8 1     
    8    3    9 2     
    9    4   10 1     
   10    4   11 2     
   11    5   12 1     
   12    5   18 1     
   13    5   19 1     
   14    6   13 ar    
   15    6   20 1     
   16    7   14 ar    
   17    7   21 1     
   18    8   15 1     
   19    8   22 1     
   20   10   15 1     
   21   10   23 1     
   22   12   24 1     
   23   12   25 1     
   24   12   26 1     
   25   13   16 ar    
   26   13   27 1     
   27   14   16 ar    
   28   14   28 1     
   29   15   17 2     
   30   16   29 1     
@<TRIPOS>SUBSTRUCTURE
      1 RES1           1
@<TRIPOS>SET
DONOR_HYDROGENS      STATIC     ATOMS    <user>   **** ""
2 22 23
ATOM$RED        STATIC     ATOMS    COLORGROUP SYSTEM
2 22 23
@<TRIPOS>COMMENT
> <Gold.Version>
2022.3.0

> <Gold.Id.Protein>
unknown|7rmh_clean|pdb

> <Gold.Protein.RotatedTorsions>
[ 6069 6060 6061 6062 ] final  112.55 input   58.43 | X-H torsion
[ 6095 6088 6089 6090 ] final  -94.28 input   80.40 | X-H torsion
[ 12696 12688 12689 12690 ] final   -1.24 input   27.23 | X-H torsion
[ 12955 12944 12943 12942 ] final -156.04 input   60.02 | X-H torsion
[  130  121  122  123 ] final -144.74 input   59.99 | X-H torsion
[ 10541 10525 10526 10527 ] final  -91.88 input   86.97 | X-H torsion
[ 12729 12724 12723 12720 ] final  132.37 input   60.00 | X-H torsion
[ 7603 7585 7586 7587 ] final  161.65 input   21.72 | X-H torsion
[ 14135 14126 14127 14128 ] final -159.23 input  100.92 | X-H torsion
[ 11478 11469 11468 11466 ] final  -67.19 input   60.02 | X-H torsion
[ 14106 14097 14096 14094 ] final  160.22 input   60.00 | X-H torsion
[ 14257 14248 14247 14245 ] final  162.81 input   60.01 | X-H torsion
[ 12659 12654 12653 12650 ] final  -15.99 input   60.00 | X-H torsion
[ 11470 11458 11459 11460 ] final  144.90 input   94.06 | X-H torsion
[ 4835 4821 4822 4823 ] final -111.50 input   91.76 | X-H torsion
[ 4838 4826 4825 4822 ] final   84.60 input   59.99 | X-H torsion
[ 13071 13062 13061 13059 ] final   94.48 input   60.03 | X-H torsion
[ 6481 6474 6475 6476 ] final -179.07 input  103.68 | X-H torsion
[ 13126 13119 13120 13121 ] final  -59.19 input  114.72 | X-H torsion
[ 13129 13124 13123 13120 ] final   75.56 input   59.98 | X-H torsion
[ 14703 6063 6062 6061 ] final -135.14 input    0.00 | X-H torsion
[ 14710 6091 6090 6089 ] final -169.41 input   -0.00 | X-H torsion
[ 14727  124  123  122 ] final   81.33 input   -0.00 | X-H torsion
[ 14734 7588 7587 7586 ] final  -68.96 input    0.00 | X-H torsion
[ 14820 6477 6476 6475 ] final   81.10 input   -0.00 | X-H torsion

> <Gold.Protein.ActiveResidues>
 ASN23   THR86   GLU172  THR173  VAL200  LYS280  GLN24   PHE25   GLN27   MET81  
 PHE84   ASN85   VAL88   ASN89   TYR92   ALA93   VAL94   HIS95   ASN96   GLU97  
 TRP98   TYR100  CYS105  HIS108  ASN109  PRO112  ILE113  VAL116  PHE117  LEU161 
 ALA162  GLN165  SER169  THR170  MET174  PRO175  SER176  ARG177  VAL178  VAL179 
 CYS180  MET181  ILE182  GLU183  TRP184  LYS190  TYR196  HIS197  THR201  ILE204 
 TRP261  PHE264  HIS265  PHE267  PHE268  LEU269  PRO271  PRO275  LEU277  TYR278 
 LEU279  LYS281  PHE282  ILE283  GLN284  GLN285  VAL286  TYR287  LEU288  ILE290 
 MET291  ALA294  MET295 

> <Gold.Protein.RotatedAtoms>
  120.5350  149.8904   87.1220 H   0  0  0  0  0  0  0  0  0  0  0  0  # atno 130  bound_to 121 
  119.3658  148.7174   87.1791 H   0  0  0  0  0  0  0  0  0  0  0  0  # atno 131  bound_to 121 
  127.9287  146.0529  112.1734 H   0  0  0  0  0  0  0  0  0  0  0  0  # atno 4835 bound_to 4821
  126.8720  144.1007  114.4554 H   0  0  0  0  0  0  0  0  0  0  0  0  # atno 4838 bound_to 4826
  132.5869  156.0091   95.7793 H   0  0  0  0  0  0  0  0  0  0  0  0  # atno 6069 bound_to 6060
  130.4360  157.3986   93.4309 H   0  0  0  0  0  0  0  0  0  0  0  0  # atno 6095 bound_to 6088
  145.9583  139.5856  106.3013 H   0  0  0  0  0  0  0  0  0  0  0  0  # atno 6481 bound_to 6474
  125.4189  139.0730   90.0052 H   0  0  0  0  0  0  0  0  0  0  0  0  # atno 7603 bound_to 7585
  119.4697  147.7882   89.6093 H   0  0  0  0  0  0  0  0  0  0  0  0  # atno 10541 bound_to 10525
  123.8239  149.8828  105.4453 H   0  0  0  0  0  0  0  0  0  0  0  0  # atno 11470 bound_to 11458
  127.9265  149.7598   97.9684 H   0  0  0  0  0  0  0  0  0  0  0  0  # atno 11478 bound_to 11469
  136.1145  154.8568  101.6943 H   0  0  0  0  0  0  0  0  0  0  0  0  # atno 12659 bound_to 12654
  126.8507  157.7144   91.0247 H   0  0  0  0  0  0  0  0  0  0  0  0  # atno 12696 bound_to 12688
  119.6885  153.5875   90.1692 H   0  0  0  0  0  0  0  0  0  0  0  0  # atno 12729 bound_to 12724
  139.6982  143.0975   90.5709 H   0  0  0  0  0  0  0  0  0  0  0  0  # atno 12955 bound_to 12944
  140.3576  141.5955   90.8058 H   0  0  0  0  0  0  0  0  0  0  0  0  # atno 12956 bound_to 12944
  140.1931  142.6373   92.0845 H   0  0  0  0  0  0  0  0  0  0  0  0  # atno 12957 bound_to 12944
  142.6847  146.1131  106.4683 H   0  0  0  0  0  0  0  0  0  0  0  0  # atno 13071 bound_to 13062
  143.5274  137.6196  107.7071 H   0  0  0  0  0  0  0  0  0  0  0  0  # atno 13126 bound_to 13119
  142.1185  136.5286  104.6362 H   0  0  0  0  0  0  0  0  0  0  0  0  # atno 13129 bound_to 13124
  133.6478  139.4797   97.7472 H   0  0  0  0  0  0  0  0  0  0  0  0  # atno 14106 bound_to 14097
  121.8047  139.7309   91.8882 H   0  0  0  0  0  0  0  0  0  0  0  0  # atno 14135 bound_to 14126
  128.0433  144.4627  104.5128 H   0  0  0  0  0  0  0  0  0  0  0  0  # atno 14257 bound_to 14248
  131.9069  157.5651   96.2059 LP  0  0  0  0  0  0  0  0  0  0  0  0  # atno 14702 bound_to 6060
  129.0385  156.0781   93.7599 LP  0  0  0  0  0  0  0  0  0  0  0  0  # atno 14703 bound_to 6063
  129.7558  156.4682   95.2874 LP  0  0  0  0  0  0  0  0  0  0  0  0  # atno 14704 bound_to 6063
  130.9852  158.7470   92.4576 LP  0  0  0  0  0  0  0  0  0  0  0  0  # atno 14709 bound_to 6088
  129.6165  156.8977   89.2594 LP  0  0  0  0  0  0  0  0  0  0  0  0  # atno 14710 bound_to 6091
  130.6745  157.4226   90.5263 LP  0  0  0  0  0  0  0  0  0  0  0  0  # atno 14711 bound_to 6091
  119.0084  150.2654   87.6066 LP  0  0  0  0  0  0  0  0  0  0  0  0  # atno 14720 bound_to 121 
  117.4428  148.0581   89.0575 LP  0  0  0  0  0  0  0  0  0  0  0  0  # atno 14727 bound_to 124 
  117.8037  148.3042   90.7335 LP  0  0  0  0  0  0  0  0  0  0  0  0  # atno 14728 bound_to 124 
  121.2617  153.9907   90.0672 LP  0  0  0  0  0  0  0  0  0  0  0  0  # atno 14729 bound_to 12724
  120.2874  154.1567   88.7673 LP  0  0  0  0  0  0  0  0  0  0  0  0  # atno 14730 bound_to 12724
  125.1484  140.1160   91.3836 LP  0  0  0  0  0  0  0  0  0  0  0  0  # atno 14733 bound_to 7585
  124.3998  139.0211   93.5477 LP  0  0  0  0  0  0  0  0  0  0  0  0  # atno 14734 bound_to 7588
  123.5674  140.5390   93.4894 LP  0  0  0  0  0  0  0  0  0  0  0  0  # atno 14735 bound_to 7588
  129.2882  149.3918   98.7797 LP  0  0  0  0  0  0  0  0  0  0  0  0  # atno 14738 bound_to 11469
  128.8292  150.9502   98.6135 LP  0  0  0  0  0  0  0  0  0  0  0  0  # atno 14739 bound_to 11469
  133.1721  137.9306   97.5952 LP  0  0  0  0  0  0  0  0  0  0  0  0  # atno 14744 bound_to 14097
  132.1799  139.0281   98.2862 LP  0  0  0  0  0  0  0  0  0  0  0  0  # atno 14745 bound_to 14097
  129.5527  143.9407  104.2005 LP  0  0  0  0  0  0  0  0  0  0  0  0  # atno 14762 bound_to 14248
  128.7341  143.3580  105.4878 LP  0  0  0  0  0  0  0  0  0  0  0  0  # atno 14763 bound_to 14248
  135.9479  154.8591  103.3130 LP  0  0  0  0  0  0  0  0  0  0  0  0  # atno 14798 bound_to 12654
  135.5139  153.5448  102.4465 LP  0  0  0  0  0  0  0  0  0  0  0  0  # atno 14799 bound_to 12654
  126.9256  146.7252  113.4304 LP  0  0  0  0  0  0  0  0  0  0  0  0  # atno 14808 bound_to 4821
  126.8831  143.3228  113.0259 LP  0  0  0  0  0  0  0  0  0  0  0  0  # atno 14809 bound_to 4826
  125.8743  142.8376  114.2148 LP  0  0  0  0  0  0  0  0  0  0  0  0  # atno 14810 bound_to 4826
  143.2054  144.9057  107.4268 LP  0  0  0  0  0  0  0  0  0  0  0  0  # atno 14815 bound_to 13062
  141.8728  144.7034  106.5049 LP  0  0  0  0  0  0  0  0  0  0  0  0  # atno 14816 bound_to 13062
  142.2051  138.1369  109.3514 LP  0  0  0  0  0  0  0  0  0  0  0  0  # atno 14820 bound_to 6477
  143.5156  137.0504  109.6709 LP  0  0  0  0  0  0  0  0  0  0  0  0  # atno 14821 bound_to 6477
  145.3358  137.9654  106.1789 LP  0  0  0  0  0  0  0  0  0  0  0  0  # atno 14822 bound_to 6474
  140.8398  136.1336  105.5619 LP  0  0  0  0  0  0  0  0  0  0  0  0  # atno 14827 bound_to 13124
  141.2373  135.2089  104.2760 LP  0  0  0  0  0  0  0  0  0  0  0  0  # atno 14828 bound_to 13124

> <Gold.Score>
     Fitness  S(hb_ext) S(vdw_ext)  S(hb_int)    S(int)      intcor
     36.41       0.00      28.54       0.00      -2.83      -0.76

> <Gold.Goldscore.Fitness>
36.4057

> <Gold.Goldscore.Internal.Vdw>
-3.1864

> <Gold.Goldscore.Internal.Torsion>
-0.4044

> <Gold.Goldscore.External.Vdw>
28.5367

> <Gold.Goldscore.Internal.HBond>
0.0000

> <Gold.Goldscore.External.HBond>
0.0000

> <Gold.Goldscore.Internal.Correction>
-0.7585

> <Gold.Goldscore.Internal.Vdw.Weighted>
-3.1864

> <Gold.Goldscore.Internal.Torsion.Weighted>
-0.4044

> <Gold.Goldscore.External.Vdw.Weighted>
39.2379

> <Gold.Goldscore.Internal.HBond.Weighted>
0.0000

> <Gold.Goldscore.External.HBond.Weighted>
0.0000

> <Gold.Goldscore.Internal.Correction.Weighted>
-0.7585

> <Gold.Rescore>
     Score     S(PLP)   S(hbond)     S(cho)   S(metal)  DE(clash)   DE(tors)     intcor
     37.90     -39.53       0.00       0.00       0.00       1.14       0.25       ----

> <Gold.PLP.Fitness>
37.9033

> <Gold.PLP.PLP>
-39.5339

> <Gold.PLP.part.hbond>
0.0000

> <Gold.PLP.part.metal>
0.0000

> <Gold.PLP.part.buried>
-3.4198

> <Gold.PLP.part.nonpolar>
-35.9751

> <Gold.PLP.part.repulsive>
0.1943

> <Gold.PLP.ligand.clash>
1.1372

> <Gold.PLP.ligand.torsion>
0.2468

> <Gold.PLP.Chemscore.Hbond>
0.0000

> <Gold.PLP.Chemscore.CHOScore>
0.0000

> <Gold.PLP.Chemscore.Metal>
0.0000

> <Gold.PLP.Chemscore.Internal.Correction>
   9.000000E+99

