#       Name:                CT1002167954
#       Creating user name   hitesit
#       Creation time:       Sun Apr 16 20:15:55 2023


#       File generated by GOLD software.
#

@<TRIPOS>MOLECULE
CT1002167954|ligand_prepared|mol2|1|dock2
    29    30     1
SMALL
NO_CHARGES


@<TRIPOS>ATOM
      1 C1         126.8907 143.5226  98.3094 C.3            1 RES1               0.0000
      2 C2         127.4417 142.7723  97.0796 C.ar           1 RES1               0.0000
      3 C3         127.1610 142.6265  99.5145 C.2            1 RES1               0.0000
      4 C4         127.6189 144.8614  98.3538 C.2            1 RES1               0.0000
      5 C5         125.3722 143.8067  98.2393 C.3            1 RES1               0.0000
      6 C6         127.1670 143.2240  95.7923 C.ar           1 RES1               0.0000
      7 C7         128.2269 141.6307  97.2164 C.ar           1 RES1               0.0000
      8 N8         128.1603 142.9967 100.3656 N.am           1 RES1               0.0000
      9 O9         126.5334 141.5901  99.6937 O.2            1 RES1               0.0000
     10 N10        128.4591 145.1006  99.4096 N.am           1 RES1               0.0000
     11 O11        127.4854 145.7047  97.4755 O.2            1 RES1               0.0000
     12 C12        124.7794 144.2987  99.5502 C.3            1 RES1               0.0000
     13 C13        127.6618 142.5602  94.6819 C.ar           1 RES1               0.0000
     14 C14        128.7205 140.9683  96.1046 C.ar           1 RES1               0.0000
     15 C15        128.7864 144.2167 100.4014 C.2            1 RES1               0.0000
     16 C16        128.4392 141.4323  94.8373 C.ar           1 RES1               0.0000
     17 O17        129.5926 144.4860 101.2872 O.2            1 RES1               0.0000
     18 H18        125.1895 144.5610  97.4640 H              1 RES1               0.0000
     19 H19        124.8543 142.8869  97.9408 H              1 RES1               0.0000
     20 H20        126.5550 144.1085  95.6503 H              1 RES1               0.0000
     21 H21        128.4602 141.2469  98.2038 H              1 RES1               0.0000
     22 H22        128.4709 142.3021 101.0375 H              1 RES1               0.0000
     23 H23        128.8794 146.0232  99.4609 H              1 RES1               0.0000
     24 H24        123.7121 144.4827  99.4459 H              1 RES1               0.0000
     25 H25        124.9208 143.5619 100.3382 H              1 RES1               0.0000
     26 H26        125.2540 145.2261  99.8642 H              1 RES1               0.0000
     27 H27        127.4363 142.9287  93.6866 H              1 RES1               0.0000
     28 H28        129.3314 140.0806  96.2316 H              1 RES1               0.0000
     29 H29        128.8270 140.9127  93.9673 H              1 RES1               0.0000
@<TRIPOS>BOND
    1    1    2 1     
    2    1    3 1     
    3    1    4 1     
    4    1    5 1     
    5    2    6 ar    
    6    2    7 ar    
    7    3    8 1     
    8    3    9 2     
    9    4   10 1     
   10    4   11 2     
   11    5   12 1     
   12    5   18 1     
   13    5   19 1     
   14    6   13 ar    
   15    6   20 1     
   16    7   14 ar    
   17    7   21 1     
   18    8   15 1     
   19    8   22 1     
   20   10   15 1     
   21   10   23 1     
   22   12   24 1     
   23   12   25 1     
   24   12   26 1     
   25   13   16 ar    
   26   13   27 1     
   27   14   16 ar    
   28   14   28 1     
   29   15   17 2     
   30   16   29 1     
@<TRIPOS>SUBSTRUCTURE
      1 RES1           1
@<TRIPOS>SET
DONOR_HYDROGENS      STATIC     ATOMS    <user>   **** ""
2 22 23
ATOM$RED        STATIC     ATOMS    COLORGROUP SYSTEM
2 22 23
@<TRIPOS>COMMENT
> <Gold.Version>
2022.3.0

> <Gold.Id.Protein>
unknown|7rmh_clean|pdb

> <Gold.Protein.RotatedTorsions>
[ 6069 6060 6061 6062 ] final -172.31 input   58.43 | X-H torsion
[ 6095 6088 6089 6090 ] final  136.62 input   80.40 | X-H torsion
[ 12696 12688 12689 12690 ] final   45.11 input   27.23 | X-H torsion
[ 12955 12944 12943 12942 ] final -105.98 input   60.02 | X-H torsion
[  130  121  122  123 ] final   80.75 input   59.99 | X-H torsion
[ 10541 10525 10526 10527 ] final  -48.14 input   86.97 | X-H torsion
[ 12729 12724 12723 12720 ] final  110.40 input   60.00 | X-H torsion
[ 7603 7585 7586 7587 ] final  -30.04 input   21.72 | X-H torsion
[ 14135 14126 14127 14128 ] final  107.05 input  100.92 | X-H torsion
[ 11478 11469 11468 11466 ] final -136.78 input   60.02 | X-H torsion
[ 14106 14097 14096 14094 ] final   87.93 input   60.00 | X-H torsion
[ 14257 14248 14247 14245 ] final   77.38 input   60.01 | X-H torsion
[ 12659 12654 12653 12650 ] final   67.00 input   60.00 | X-H torsion
[ 11470 11458 11459 11460 ] final -177.37 input   94.06 | X-H torsion
[ 4835 4821 4822 4823 ] final   69.76 input   91.76 | X-H torsion
[ 4838 4826 4825 4822 ] final  -25.78 input   59.99 | X-H torsion
[ 13071 13062 13061 13059 ] final  -78.58 input   60.03 | X-H torsion
[ 6481 6474 6475 6476 ] final  -15.41 input  103.68 | X-H torsion
[ 13126 13119 13120 13121 ] final  171.21 input  114.72 | X-H torsion
[ 13129 13124 13123 13120 ] final  -37.37 input   59.98 | X-H torsion
[ 14703 6063 6062 6061 ] final  -64.30 input    0.00 | X-H torsion
[ 14710 6091 6090 6089 ] final -108.74 input   -0.00 | X-H torsion
[ 14727  124  123  122 ] final  -69.09 input   -0.00 | X-H torsion
[ 14734 7588 7587 7586 ] final  -24.55 input    0.00 | X-H torsion
[ 14820 6477 6476 6475 ] final   90.67 input   -0.00 | X-H torsion

> <Gold.Protein.ActiveResidues>
 ASN23   THR86   GLU172  THR173  VAL200  LYS280  GLN24   PHE25   GLN27   MET81  
 PHE84   ASN85   VAL88   ASN89   TYR92   ALA93   VAL94   HIS95   ASN96   GLU97  
 TRP98   TYR100  CYS105  HIS108  ASN109  PRO112  ILE113  VAL116  PHE117  LEU161 
 ALA162  GLN165  SER169  THR170  MET174  PRO175  SER176  ARG177  VAL178  VAL179 
 CYS180  MET181  ILE182  GLU183  TRP184  LYS190  TYR196  HIS197  THR201  ILE204 
 TRP261  PHE264  HIS265  PHE267  PHE268  LEU269  PRO271  PRO275  LEU277  TYR278 
 LEU279  LYS281  PHE282  ILE283  GLN284  GLN285  VAL286  TYR287  LEU288  ILE290 
 MET291  ALA294  MET295 

> <Gold.Protein.RotatedAtoms>
  118.8494  150.0855   87.6052 H   0  0  0  0  0  0  0  0  0  0  0  0  # atno 130  bound_to 121 
  120.4533  150.1076   87.1890 H   0  0  0  0  0  0  0  0  0  0  0  0  # atno 131  bound_to 121 
  126.9412  146.7230  113.4528 H   0  0  0  0  0  0  0  0  0  0  0  0  # atno 4835 bound_to 4821
  126.9703  143.4479  113.0665 H   0  0  0  0  0  0  0  0  0  0  0  0  # atno 4838 bound_to 4826
  133.1166  156.9461   95.9234 H   0  0  0  0  0  0  0  0  0  0  0  0  # atno 6069 bound_to 6060
  130.7095  158.9559   93.1270 H   0  0  0  0  0  0  0  0  0  0  0  0  # atno 6095 bound_to 6088
  145.5293  137.9193  106.3291 H   0  0  0  0  0  0  0  0  0  0  0  0  # atno 6481 bound_to 6474
  125.0668  140.2426   91.2829 H   0  0  0  0  0  0  0  0  0  0  0  0  # atno 7603 bound_to 7585
  119.7548  147.7856   90.2010 H   0  0  0  0  0  0  0  0  0  0  0  0  # atno 10541 bound_to 10525
  123.4615  150.2895  105.2666 H   0  0  0  0  0  0  0  0  0  0  0  0  # atno 11470 bound_to 11458
  128.6629  149.1006   98.3740 H   0  0  0  0  0  0  0  0  0  0  0  0  # atno 11478 bound_to 11469
  135.6451  153.7259  101.8935 H   0  0  0  0  0  0  0  0  0  0  0  0  # atno 12659 bound_to 12654
  126.9018  157.1076   91.3959 H   0  0  0  0  0  0  0  0  0  0  0  0  # atno 12696 bound_to 12688
  119.9499  153.5755   90.4117 H   0  0  0  0  0  0  0  0  0  0  0  0  # atno 12729 bound_to 12724
  139.9091  142.4022   90.2137 H   0  0  0  0  0  0  0  0  0  0  0  0  # atno 12955 bound_to 12944
  140.4785  141.6953   91.6000 H   0  0  0  0  0  0  0  0  0  0  0  0  # atno 12956 bound_to 12944
  139.8613  143.2328   91.6474 H   0  0  0  0  0  0  0  0  0  0  0  0  # atno 12957 bound_to 12944
  142.5860  144.3917  107.1891 H   0  0  0  0  0  0  0  0  0  0  0  0  # atno 13071 bound_to 13062
  142.9541  137.6169  106.2173 H   0  0  0  0  0  0  0  0  0  0  0  0  # atno 13126 bound_to 13119
  140.9116  136.2237  105.5773 H   0  0  0  0  0  0  0  0  0  0  0  0  # atno 13129 bound_to 13124
  133.7397  138.4172   97.4582 H   0  0  0  0  0  0  0  0  0  0  0  0  # atno 14106 bound_to 14097
  121.0621  138.6974   91.6769 H   0  0  0  0  0  0  0  0  0  0  0  0  # atno 14135 bound_to 14126
  129.1840  144.2966  103.9789 H   0  0  0  0  0  0  0  0  0  0  0  0  # atno 14257 bound_to 14248
  131.3952  156.6599   96.0666 LP  0  0  0  0  0  0  0  0  0  0  0  0  # atno 14702 bound_to 6060
  129.7802  155.5661   94.2021 LP  0  0  0  0  0  0  0  0  0  0  0  0  # atno 14703 bound_to 6063
  129.0141  156.9801   94.8453 LP  0  0  0  0  0  0  0  0  0  0  0  0  # atno 14704 bound_to 6063
  130.7216  157.2455   92.7507 LP  0  0  0  0  0  0  0  0  0  0  0  0  # atno 14709 bound_to 6088
  129.8606  157.7360   89.3122 LP  0  0  0  0  0  0  0  0  0  0  0  0  # atno 14710 bound_to 6091
  130.4305  156.5843   90.4735 LP  0  0  0  0  0  0  0  0  0  0  0  0  # atno 14711 bound_to 6091
  119.5985  148.7035   87.1206 LP  0  0  0  0  0  0  0  0  0  0  0  0  # atno 14720 bound_to 121 
  117.7946  148.7104   90.5593 LP  0  0  0  0  0  0  0  0  0  0  0  0  # atno 14727 bound_to 124 
  117.4519  147.6519   89.2318 LP  0  0  0  0  0  0  0  0  0  0  0  0  # atno 14728 bound_to 124 
  121.3302  154.1087   89.7348 LP  0  0  0  0  0  0  0  0  0  0  0  0  # atno 14729 bound_to 12724
  119.9555  154.0508   88.8554 LP  0  0  0  0  0  0  0  0  0  0  0  0  # atno 14730 bound_to 12724
  125.4897  138.9824   90.1452 LP  0  0  0  0  0  0  0  0  0  0  0  0  # atno 14733 bound_to 7585
  124.6690  139.4345   93.1174 LP  0  0  0  0  0  0  0  0  0  0  0  0  # atno 14734 bound_to 7588
  123.2982  140.1256   93.9196 LP  0  0  0  0  0  0  0  0  0  0  0  0  # atno 14735 bound_to 7588
  129.3827  150.4546   98.9184 LP  0  0  0  0  0  0  0  0  0  0  0  0  # atno 14738 bound_to 11469
  127.9930  150.5513   98.0664 LP  0  0  0  0  0  0  0  0  0  0  0  0  # atno 14739 bound_to 11469
  132.2433  138.2948   98.0868 LP  0  0  0  0  0  0  0  0  0  0  0  0  # atno 14744 bound_to 14097
  133.0161  139.7333   98.0855 LP  0  0  0  0  0  0  0  0  0  0  0  0  # atno 14745 bound_to 14097
  129.2372  143.2847  105.2523 LP  0  0  0  0  0  0  0  0  0  0  0  0  # atno 14762 bound_to 14248
  127.9011  144.1812  104.9735 LP  0  0  0  0  0  0  0  0  0  0  0  0  # atno 14763 bound_to 14248
  136.2131  155.2291  102.1497 LP  0  0  0  0  0  0  0  0  0  0  0  0  # atno 14798 bound_to 12654
  135.7214  154.3134  103.4091 LP  0  0  0  0  0  0  0  0  0  0  0  0  # atno 14799 bound_to 12654
  127.9055  146.0603  112.1609 LP  0  0  0  0  0  0  0  0  0  0  0  0  # atno 14808 bound_to 4821
  125.8844  142.7704  114.0718 LP  0  0  0  0  0  0  0  0  0  0  0  0  # atno 14809 bound_to 4826
  126.7741  144.0471  114.5669 LP  0  0  0  0  0  0  0  0  0  0  0  0  # atno 14810 bound_to 4826
  141.9172  145.4791  106.1801 LP  0  0  0  0  0  0  0  0  0  0  0  0  # atno 14815 bound_to 13062
  143.2603  145.8636  107.0257 LP  0  0  0  0  0  0  0  0  0  0  0  0  # atno 14816 bound_to 13062
  142.1360  138.0199  109.3024 LP  0  0  0  0  0  0  0  0  0  0  0  0  # atno 14820 bound_to 6477
  143.5848  137.1674  109.7199 LP  0  0  0  0  0  0  0  0  0  0  0  0  # atno 14821 bound_to 6477
  145.7654  139.6341  106.1511 LP  0  0  0  0  0  0  0  0  0  0  0  0  # atno 14822 bound_to 6474
  141.1474  135.1862  104.3461 LP  0  0  0  0  0  0  0  0  0  0  0  0  # atno 14827 bound_to 13124
  142.1454  136.4635  104.5438 LP  0  0  0  0  0  0  0  0  0  0  0  0  # atno 14828 bound_to 13124

> <Gold.Score>
     Fitness  S(hb_ext) S(vdw_ext)  S(hb_int)    S(int)      intcor
     33.77       0.03      25.82       0.00      -1.77      -0.76

> <Gold.Goldscore.Fitness>
33.7671

> <Gold.Goldscore.Internal.Vdw>
-1.9653

> <Gold.Goldscore.Internal.Torsion>
-0.5687

> <Gold.Goldscore.External.Vdw>
25.8247

> <Gold.Goldscore.Internal.HBond>
0.0000

> <Gold.Goldscore.External.HBond>
0.0272

> <Gold.Goldscore.Internal.Correction>
-0.7650

> <Gold.Goldscore.Hbonds>
donor molecule, donor type, donor heavy atom, donor atom, acceptor molecule, acceptor atom, score
      P1  H 11529 11534       L1    11  0.01

> <Gold.Goldscore.Internal.Vdw.Weighted>
-1.9653

> <Gold.Goldscore.Internal.Torsion.Weighted>
-0.5687

> <Gold.Goldscore.External.Vdw.Weighted>
35.5090

> <Gold.Goldscore.Internal.HBond.Weighted>
0.0000

> <Gold.Goldscore.External.HBond.Weighted>
0.0272

> <Gold.Goldscore.Internal.Correction.Weighted>
-0.7650

> <Gold.Rescore>
     Score     S(PLP)   S(hbond)     S(cho)   S(metal)  DE(clash)   DE(tors)     intcor
     35.86     -36.09       0.42       0.00       0.00       1.26       0.11       ----

> <Gold.PLP.Fitness>
35.8637

> <Gold.PLP.PLP>
-36.0855

> <Gold.PLP.part.hbond>
-1.0000

> <Gold.PLP.part.metal>
0.0000

> <Gold.PLP.part.buried>
-4.2689

> <Gold.PLP.part.nonpolar>
-31.3208

> <Gold.PLP.part.repulsive>
0.1272

> <Gold.PLP.ligand.clash>
1.2566

> <Gold.PLP.ligand.torsion>
0.1066

> <Gold.PLP.Chemscore.Hbond>
0.4160

> <Gold.PLP.Chemscore.CHOScore>
0.0000

> <Gold.PLP.Chemscore.Metal>
0.0000

> <Gold.Chemscore.Hbonds>
donor molecule, donor type, donor heavy atom, donor atom, acceptor molecule, acceptor atom, score
      P1  H 11529 11534       L1    11  0.54

> <Gold.PLP.Chemscore.Internal.Correction>
   9.000000E+99

