#       Name:                CT1002167954
#       Creating user name   hitesit
#       Creation time:       Sun Apr 16 20:16:06 2023


#       File generated by GOLD software.
#

@<TRIPOS>MOLECULE
CT1002167954|ligand_prepared|mol2|1|dock9
    29    30     1
SMALL
NO_CHARGES


@<TRIPOS>ATOM
      1 C1         127.6302 142.9681  96.6334 C.3            1 RES1               0.0000
      2 C2         126.3879 143.3816  97.4486 C.ar           1 RES1               0.0000
      3 C3         127.1560 142.7815  95.1951 C.2            1 RES1               0.0000
      4 C4         128.6497 144.0876  96.8120 C.2            1 RES1               0.0000
      5 C5         128.2804 141.6489  97.1113 C.3            1 RES1               0.0000
      6 C6         126.3173 143.1209  98.8139 C.ar           1 RES1               0.0000
      7 C7         125.3078 144.0257  96.8511 C.ar           1 RES1               0.0000
      8 N8         127.5013 143.7384  94.2868 N.am           1 RES1               0.0000
      9 O9         126.4565 141.8296  94.8713 O.2            1 RES1               0.0000
     10 N10        128.9900 144.8280  95.7103 N.am           1 RES1               0.0000
     11 O11        129.1490 144.3460  97.9003 O.2            1 RES1               0.0000
     12 C12        129.3151 141.0908  96.1469 C.3            1 RES1               0.0000
     13 C13        125.2084 143.4933  99.5555 C.ar           1 RES1               0.0000
     14 C14        124.1997 144.3969  97.5946 C.ar           1 RES1               0.0000
     15 C15        128.4391 144.7240  94.4622 C.2            1 RES1               0.0000
     16 C16        124.1492 144.1318  98.9466 C.ar           1 RES1               0.0000
     17 O17        128.7586 145.4627  93.5351 O.2            1 RES1               0.0000
     18 H18        128.7605 141.8233  98.0821 H              1 RES1               0.0000
     19 H19        127.4928 140.8993  97.2566 H              1 RES1               0.0000
     20 H20        127.1402 142.6171  99.3099 H              1 RES1               0.0000
     21 H21        125.3251 144.2435  95.7886 H              1 RES1               0.0000
     22 H22        127.0175 143.7194  93.3947 H              1 RES1               0.0000
     23 H23        129.7220 145.5207  95.8319 H              1 RES1               0.0000
     24 H24        129.7400 140.1654  96.5301 H              1 RES1               0.0000
     25 H25        128.8663 140.8819  95.1780 H              1 RES1               0.0000
     26 H26        130.1265 141.8004  95.9986 H              1 RES1               0.0000
     27 H27        125.1730 143.2811 100.6190 H              1 RES1               0.0000
     28 H28        123.3680 144.8987  97.1111 H              1 RES1               0.0000
     29 H29        123.2808 144.4237  99.5278 H              1 RES1               0.0000
@<TRIPOS>BOND
    1    1    2 1     
    2    1    3 1     
    3    1    4 1     
    4    1    5 1     
    5    2    6 ar    
    6    2    7 ar    
    7    3    8 1     
    8    3    9 2     
    9    4   10 1     
   10    4   11 2     
   11    5   12 1     
   12    5   18 1     
   13    5   19 1     
   14    6   13 ar    
   15    6   20 1     
   16    7   14 ar    
   17    7   21 1     
   18    8   15 1     
   19    8   22 1     
   20   10   15 1     
   21   10   23 1     
   22   12   24 1     
   23   12   25 1     
   24   12   26 1     
   25   13   16 ar    
   26   13   27 1     
   27   14   16 ar    
   28   14   28 1     
   29   15   17 2     
   30   16   29 1     
@<TRIPOS>SUBSTRUCTURE
      1 RES1           1
@<TRIPOS>SET
DONOR_HYDROGENS      STATIC     ATOMS    <user>   **** ""
2 22 23
ATOM$RED        STATIC     ATOMS    COLORGROUP SYSTEM
2 22 23
@<TRIPOS>COMMENT
> <Gold.Version>
2022.3.0

> <Gold.Id.Protein>
unknown|7rmh_clean|pdb

> <Gold.Protein.RotatedTorsions>
[ 6069 6060 6061 6062 ] final  102.05 input   58.43 | X-H torsion
[ 6095 6088 6089 6090 ] final   82.46 input   80.40 | X-H torsion
[ 12696 12688 12689 12690 ] final  -46.95 input   27.23 | X-H torsion
[ 12955 12944 12943 12942 ] final -165.05 input   60.02 | X-H torsion
[  130  121  122  123 ] final  -10.01 input   59.99 | X-H torsion
[ 10541 10525 10526 10527 ] final -113.89 input   86.97 | X-H torsion
[ 12729 12724 12723 12720 ] final -153.23 input   60.00 | X-H torsion
[ 7603 7585 7586 7587 ] final   -7.70 input   21.72 | X-H torsion
[ 14135 14126 14127 14128 ] final   51.13 input  100.92 | X-H torsion
[ 11478 11469 11468 11466 ] final   97.54 input   60.02 | X-H torsion
[ 14106 14097 14096 14094 ] final  -95.59 input   60.00 | X-H torsion
[ 14257 14248 14247 14245 ] final   40.12 input   60.01 | X-H torsion
[ 12659 12654 12653 12650 ] final   28.44 input   60.00 | X-H torsion
[ 11470 11458 11459 11460 ] final   33.01 input   94.06 | X-H torsion
[ 4835 4821 4822 4823 ] final  -62.22 input   91.76 | X-H torsion
[ 4838 4826 4825 4822 ] final  -86.77 input   59.99 | X-H torsion
[ 13071 13062 13061 13059 ] final  178.51 input   60.03 | X-H torsion
[ 6481 6474 6475 6476 ] final   75.31 input  103.68 | X-H torsion
[ 13126 13119 13120 13121 ] final  103.65 input  114.72 | X-H torsion
[ 13129 13124 13123 13120 ] final   76.45 input   59.98 | X-H torsion
[ 14703 6063 6062 6061 ] final  132.16 input    0.00 | X-H torsion
[ 14710 6091 6090 6089 ] final  166.81 input   -0.00 | X-H torsion
[ 14727  124  123  122 ] final    4.02 input   -0.00 | X-H torsion
[ 14734 7588 7587 7586 ] final  150.34 input    0.00 | X-H torsion
[ 14820 6477 6476 6475 ] final -104.43 input   -0.00 | X-H torsion

> <Gold.Protein.ActiveResidues>
 ASN23   THR86   GLU172  THR173  VAL200  LYS280  GLN24   PHE25   GLN27   MET81  
 PHE84   ASN85   VAL88   ASN89   TYR92   ALA93   VAL94   HIS95   ASN96   GLU97  
 TRP98   TYR100  CYS105  HIS108  ASN109  PRO112  ILE113  VAL116  PHE117  LEU161 
 ALA162  GLN165  SER169  THR170  MET174  PRO175  SER176  ARG177  VAL178  VAL179 
 CYS180  MET181  ILE182  GLU183  TRP184  LYS190  TYR196  HIS197  THR201  ILE204 
 TRP261  PHE264  HIS265  PHE267  PHE268  LEU269  PRO271  PRO275  LEU277  TYR278 
 LEU279  LYS281  PHE282  ILE283  GLN284  GLN285  VAL286  TYR287  LEU288  ILE290 
 MET291  ALA294  MET295 

> <Gold.Protein.RotatedAtoms>
  119.1492  148.8042   87.2547 H   0  0  0  0  0  0  0  0  0  0  0  0  # atno 130  bound_to 121 
  119.1903  150.4270   87.5878 H   0  0  0  0  0  0  0  0  0  0  0  0  # atno 131  bound_to 121 
  127.5884  146.6722  111.9924 H   0  0  0  0  0  0  0  0  0  0  0  0  # atno 4835 bound_to 4821
  126.3038  142.7947  113.2472 H   0  0  0  0  0  0  0  0  0  0  0  0  # atno 4838 bound_to 4826
  132.4326  155.9570   95.7845 H   0  0  0  0  0  0  0  0  0  0  0  0  # atno 6069 bound_to 6060
  130.9822  158.7410   92.3933 H   0  0  0  0  0  0  0  0  0  0  0  0  # atno 6095 bound_to 6088
  145.0287  138.8088  105.6300 H   0  0  0  0  0  0  0  0  0  0  0  0  # atno 6481 bound_to 6474
  125.1867  139.9991   91.4946 H   0  0  0  0  0  0  0  0  0  0  0  0  # atno 7603 bound_to 7585
  119.4863  147.6924   89.2872 H   0  0  0  0  0  0  0  0  0  0  0  0  # atno 10541 bound_to 10525
  123.1834  148.6111  105.0849 H   0  0  0  0  0  0  0  0  0  0  0  0  # atno 11470 bound_to 11458
  129.3350  150.5323   98.8976 H   0  0  0  0  0  0  0  0  0  0  0  0  # atno 11478 bound_to 11469
  135.8679  154.2046  101.5720 H   0  0  0  0  0  0  0  0  0  0  0  0  # atno 12659 bound_to 12654
  127.3003  158.0850   90.6299 H   0  0  0  0  0  0  0  0  0  0  0  0  # atno 12696 bound_to 12688
  119.6784  153.9163   89.0862 H   0  0  0  0  0  0  0  0  0  0  0  0  # atno 12729 bound_to 12724
  139.6881  143.1836   90.6937 H   0  0  0  0  0  0  0  0  0  0  0  0  # atno 12955 bound_to 12944
  140.3094  141.6476   90.6733 H   0  0  0  0  0  0  0  0  0  0  0  0  # atno 12956 bound_to 12944
  140.2515  142.4990   92.0943 H   0  0  0  0  0  0  0  0  0  0  0  0  # atno 12957 bound_to 12944
  141.8390  145.2174  106.2381 H   0  0  0  0  0  0  0  0  0  0  0  0  # atno 13071 bound_to 13062
  143.8059  137.1611  106.0471 H   0  0  0  0  0  0  0  0  0  0  0  0  # atno 13126 bound_to 13119
  142.1220  136.5203  104.6248 H   0  0  0  0  0  0  0  0  0  0  0  0  # atno 13129 bound_to 13124
  132.2903  139.2619   98.2900 H   0  0  0  0  0  0  0  0  0  0  0  0  # atno 14106 bound_to 14097
  121.4998  138.0537   91.9622 H   0  0  0  0  0  0  0  0  0  0  0  0  # atno 14135 bound_to 14126
  129.5642  143.9087  104.2294 H   0  0  0  0  0  0  0  0  0  0  0  0  # atno 14257 bound_to 14248
  132.0560  157.6154   96.2009 LP  0  0  0  0  0  0  0  0  0  0  0  0  # atno 14702 bound_to 6060
  128.8845  156.9622   94.6346 LP  0  0  0  0  0  0  0  0  0  0  0  0  # atno 14703 bound_to 6063
  129.9099  155.5840   94.4128 LP  0  0  0  0  0  0  0  0  0  0  0  0  # atno 14704 bound_to 6063
  130.4586  157.4528   93.4580 LP  0  0  0  0  0  0  0  0  0  0  0  0  # atno 14709 bound_to 6088
  129.6734  156.5942   89.4382 LP  0  0  0  0  0  0  0  0  0  0  0  0  # atno 14710 bound_to 6091
  130.6177  157.7261   90.3475 LP  0  0  0  0  0  0  0  0  0  0  0  0  # atno 14711 bound_to 6091
  120.5472  149.6519   87.0731 LP  0  0  0  0  0  0  0  0  0  0  0  0  # atno 14720 bound_to 121 
  117.6121  148.9887   89.5828 LP  0  0  0  0  0  0  0  0  0  0  0  0  # atno 14727 bound_to 124 
  117.6345  147.3736   90.2082 LP  0  0  0  0  0  0  0  0  0  0  0  0  # atno 14728 bound_to 124 
  120.3041  153.6132   90.5574 LP  0  0  0  0  0  0  0  0  0  0  0  0  # atno 14729 bound_to 12724
  121.2551  154.2030   89.3681 LP  0  0  0  0  0  0  0  0  0  0  0  0  # atno 14730 bound_to 12724
  125.3735  139.2184   89.9400 LP  0  0  0  0  0  0  0  0  0  0  0  0  # atno 14733 bound_to 7585
  123.3103  140.1894   93.8778 LP  0  0  0  0  0  0  0  0  0  0  0  0  # atno 14734 bound_to 7588
  124.6569  139.3707   93.1592 LP  0  0  0  0  0  0  0  0  0  0  0  0  # atno 14735 bound_to 7588
  127.9553  150.4709   98.0370 LP  0  0  0  0  0  0  0  0  0  0  0  0  # atno 14738 bound_to 11469
  128.7437  149.0932   98.4205 LP  0  0  0  0  0  0  0  0  0  0  0  0  # atno 14739 bound_to 11469
  133.7844  139.2856   97.6447 LP  0  0  0  0  0  0  0  0  0  0  0  0  # atno 14744 bound_to 14097
  132.9339  137.8923   97.6905 LP  0  0  0  0  0  0  0  0  0  0  0  0  # atno 14745 bound_to 14097
  128.6933  143.3728  105.4954 LP  0  0  0  0  0  0  0  0  0  0  0  0  # atno 14762 bound_to 14248
  128.0623  144.4836  104.4782 LP  0  0  0  0  0  0  0  0  0  0  0  0  # atno 14763 bound_to 14248
  136.1648  155.2659  102.7692 LP  0  0  0  0  0  0  0  0  0  0  0  0  # atno 14798 bound_to 12654
  135.5454  153.7946  103.1133 LP  0  0  0  0  0  0  0  0  0  0  0  0  # atno 14799 bound_to 12654
  127.2633  146.1106  113.6101 LP  0  0  0  0  0  0  0  0  0  0  0  0  # atno 14808 bound_to 4821
  126.1229  143.4090  114.7434 LP  0  0  0  0  0  0  0  0  0  0  0  0  # atno 14809 bound_to 4826
  127.2065  144.0661  113.7135 LP  0  0  0  0  0  0  0  0  0  0  0  0  # atno 14810 bound_to 4826
  143.1174  146.0216  106.8437 LP  0  0  0  0  0  0  0  0  0  0  0  0  # atno 14815 bound_to 13062
  142.8125  144.4896  107.3199 LP  0  0  0  0  0  0  0  0  0  0  0  0  # atno 14816 bound_to 13062
  143.4672  136.9896  109.6405 LP  0  0  0  0  0  0  0  0  0  0  0  0  # atno 14820 bound_to 6477
  142.2535  138.1978  109.3817 LP  0  0  0  0  0  0  0  0  0  0  0  0  # atno 14821 bound_to 6477
  146.2667  138.7433  106.8511 LP  0  0  0  0  0  0  0  0  0  0  0  0  # atno 14822 bound_to 6474
  140.8478  136.1455  105.5650 LP  0  0  0  0  0  0  0  0  0  0  0  0  # atno 14827 bound_to 13124
  141.2258  135.2054  104.2844 LP  0  0  0  0  0  0  0  0  0  0  0  0  # atno 14828 bound_to 13124

> <Gold.Score>
     Fitness  S(hb_ext) S(vdw_ext)  S(hb_int)    S(int)      intcor
     33.22       0.00      24.79       0.00      -0.87      -0.76

> <Gold.Goldscore.Fitness>
33.2211

> <Gold.Goldscore.Internal.Vdw>
-1.0289

> <Gold.Goldscore.Internal.Torsion>
-0.5983

> <Gold.Goldscore.External.Vdw>
24.7925

> <Gold.Goldscore.Internal.HBond>
0.0000

> <Gold.Goldscore.External.HBond>
0.0000

> <Gold.Goldscore.Internal.Correction>
-0.7585

> <Gold.Goldscore.Internal.Vdw.Weighted>
-1.0289

> <Gold.Goldscore.Internal.Torsion.Weighted>
-0.5983

> <Gold.Goldscore.External.Vdw.Weighted>
34.0897

> <Gold.Goldscore.Internal.HBond.Weighted>
0.0000

> <Gold.Goldscore.External.HBond.Weighted>
0.0000

> <Gold.Goldscore.Internal.Correction.Weighted>
-0.7585

> <Gold.Rescore>
     Score     S(PLP)   S(hbond)     S(cho)   S(metal)  DE(clash)   DE(tors)     intcor
     21.24     -23.23       0.00       0.00       0.00       0.44       0.78       ----

> <Gold.PLP.Fitness>
21.2387

> <Gold.PLP.PLP>
-23.2332

> <Gold.PLP.part.hbond>
0.0000

> <Gold.PLP.part.metal>
0.0000

> <Gold.PLP.part.buried>
5.1415

> <Gold.PLP.part.nonpolar>
-27.7757

> <Gold.PLP.part.repulsive>
0.1984

> <Gold.PLP.ligand.clash>
0.4355

> <Gold.PLP.ligand.torsion>
0.7795

> <Gold.PLP.Chemscore.Hbond>
0.0000

> <Gold.PLP.Chemscore.CHOScore>
0.0000

> <Gold.PLP.Chemscore.Metal>
0.0000

> <Gold.PLP.Chemscore.Internal.Correction>
   9.000000E+99

