#       Name:                GA Fitting Points
#       Creating user name   hitesit
#       Creation time:       Sun Apr 16 02:25:25 2023


#       Fitting Points Used by GA Software.
#

@<TRIPOS>MOLECULE
GA Fitting Points
  5355    0    0
SMALL
NO_CHARGES


@<TRIPOS>ATOM
      1 ****       242.2500 353.5000 -82.7500 Du        
      2 ****       242.2500 353.5000 -82.2500 Du        
      3 ****       242.2500 353.5000 -82.0000 Du        
      4 ****       242.2500 353.5000 -81.7500 Du        
      5 ****       242.2500 353.7500 -83.0000 Du        
      6 ****       242.2500 353.7500 -82.7500 Du        
      7 ****       242.2500 353.7500 -82.5000 Du        
      8 ****       242.2500 353.7500 -82.2500 Du        
      9 ****       242.2500 353.7500 -82.0000 Du        
     10 ****       242.2500 353.7500 -81.7500 Du        
     11 ****       242.5000 353.5000 -83.0000 Du        
     12 ****       242.5000 353.5000 -82.7500 Du        
     13 ****       242.5000 353.5000 -82.5000 Du        
     14 ****       242.5000 353.5000 -82.2500 Du        
     15 ****       242.5000 353.5000 -82.0000 Du        
     16 ****       242.5000 353.5000 -81.7500 Du        
     17 ****       242.5000 353.7500 -83.0000 Du        
     18 ****       242.5000 353.7500 -82.7500 Du        
     19 ****       242.5000 353.7500 -82.5000 Du        
     20 ****       242.5000 353.7500 -82.2500 Du        
     21 ****       242.5000 353.7500 -82.0000 Du        
     22 ****       242.5000 353.7500 -81.7500 Du        
     23 ****       242.7500 353.5000 -83.0000 Du        
     24 ****       242.7500 353.5000 -82.7500 Du        
     25 ****       242.7500 353.5000 -82.5000 Du        
     26 ****       242.7500 353.5000 -82.2500 Du        
     27 ****       242.7500 353.5000 -82.0000 Du        
     28 ****       242.7500 353.5000 -81.7500 Du        
     29 ****       242.7500 353.7500 -83.5000 Du        
     30 ****       242.7500 353.7500 -83.2500 Du        
     31 ****       242.7500 353.7500 -83.0000 Du        
     32 ****       242.7500 353.7500 -82.7500 Du        
     33 ****       242.7500 353.7500 -82.5000 Du        
     34 ****       242.7500 353.7500 -82.2500 Du        
     35 ****       242.7500 353.7500 -82.0000 Du        
     36 ****       242.7500 353.7500 -81.7500 Du        
     37 ****       242.7500 354.0000 -83.2500 Du        
     38 ****       242.7500 354.0000 -83.0000 Du        
     39 ****       242.7500 354.0000 -82.7500 Du        
     40 ****       242.7500 354.0000 -82.5000 Du        
     41 ****       242.7500 354.0000 -82.2500 Du        
     42 ****       242.7500 354.0000 -82.0000 Du        
     43 ****       242.7500 354.0000 -81.7500 Du        
     44 ****       242.7500 354.2500 -83.0000 Du        
     45 ****       242.7500 354.2500 -82.7500 Du        
     46 ****       242.7500 354.2500 -82.5000 Du        
     47 ****       242.7500 354.2500 -82.2500 Du        
     48 ****       242.7500 354.2500 -82.0000 Du        
     49 ****       242.7500 354.2500 -81.7500 Du        
     50 ****       242.7500 354.5000 -82.7500 Du        
     51 ****       242.7500 354.5000 -82.5000 Du        
     52 ****       242.7500 354.5000 -82.2500 Du        
     53 ****       242.7500 354.5000 -82.0000 Du        
     54 ****       242.7500 354.5000 -81.7500 Du        
     55 ****       242.7500 354.7500 -82.7500 Du        
     56 ****       242.7500 354.7500 -82.5000 Du        
     57 ****       242.7500 354.7500 -82.2500 Du        
     58 ****       242.7500 354.7500 -82.0000 Du        
     59 ****       242.7500 354.7500 -81.7500 Du        
     60 ****       242.7500 355.0000 -82.5000 Du        
     61 ****       242.7500 355.0000 -82.2500 Du        
     62 ****       242.7500 355.0000 -82.0000 Du        
     63 ****       242.7500 355.0000 -81.7500 Du        
     64 ****       243.0000 353.5000 -83.5000 Du        
     65 ****       243.0000 353.5000 -83.2500 Du        
     66 ****       243.0000 353.5000 -83.0000 Du        
     67 ****       243.0000 353.5000 -82.7500 Du        
     68 ****       243.0000 353.5000 -82.5000 Du        
     69 ****       243.0000 353.5000 -82.2500 Du        
     70 ****       243.0000 353.5000 -82.0000 Du        
     71 ****       243.0000 353.5000 -81.7500 Du        
     72 ****       243.0000 353.7500 -83.7500 Du        
     73 ****       243.0000 353.7500 -83.5000 Du        
     74 ****       243.0000 353.7500 -83.2500 Du        
     75 ****       243.0000 353.7500 -83.0000 Du        
     76 ****       243.0000 353.7500 -82.7500 Du        
     77 ****       243.0000 353.7500 -82.5000 Du        
     78 ****       243.0000 353.7500 -82.2500 Du        
     79 ****       243.0000 353.7500 -82.0000 Du        
     80 ****       243.0000 353.7500 -81.7500 Du        
     81 ****       243.0000 354.0000 -83.5000 Du        
     82 ****       243.0000 354.0000 -83.2500 Du        
     83 ****       243.0000 354.0000 -83.0000 Du        
     84 ****       243.0000 354.0000 -82.7500 Du        
     85 ****       243.0000 354.0000 -82.5000 Du        
     86 ****       243.0000 354.0000 -82.2500 Du        
     87 ****       243.0000 354.0000 -82.0000 Du        
     88 ****       243.0000 354.0000 -81.7500 Du        
     89 ****       243.0000 354.2500 -83.2500 Du        
     90 ****       243.0000 354.2500 -83.0000 Du        
     91 ****       243.0000 354.2500 -82.7500 Du        
     92 ****       243.0000 354.2500 -82.5000 Du        
     93 ****       243.0000 354.2500 -82.2500 Du        
     94 ****       243.0000 354.2500 -82.0000 Du        
     95 ****       243.0000 354.2500 -81.7500 Du        
     96 ****       243.0000 354.5000 -83.0000 Du        
     97 ****       243.0000 354.5000 -82.7500 Du        
     98 ****       243.0000 354.5000 -82.5000 Du        
     99 ****       243.0000 354.5000 -82.2500 Du        
    100 ****       243.0000 354.5000 -82.0000 Du        
    101 ****       243.0000 354.5000 -81.7500 Du        
    102 ****       243.0000 354.5000 -81.5000 Du        
    103 ****       243.0000 354.7500 -82.7500 Du        
    104 ****       243.0000 354.7500 -82.5000 Du        
    105 ****       243.0000 354.7500 -82.2500 Du        
    106 ****       243.0000 354.7500 -82.0000 Du        
    107 ****       243.0000 354.7500 -81.7500 Du        
    108 ****       243.0000 355.0000 -82.5000 Du        
    109 ****       243.0000 355.0000 -82.2500 Du        
    110 ****       243.0000 355.0000 -82.0000 Du        
    111 ****       243.0000 355.0000 -81.7500 Du        
    112 ****       243.2500 351.7500 -78.0000 Du        
    113 ****       243.2500 351.7500 -77.7500 Du        
    114 ****       243.2500 352.0000 -78.0000 Du        
    115 ****       243.2500 353.5000 -84.2500 Du        
    116 ****       243.2500 353.5000 -84.0000 Du        
    117 ****       243.2500 353.5000 -83.7500 Du        
    118 ****       243.2500 353.5000 -83.5000 Du        
    119 ****       243.2500 353.5000 -83.2500 Du        
    120 ****       243.2500 353.5000 -83.0000 Du        
    121 ****       243.2500 353.5000 -82.7500 Du        
    122 ****       243.2500 353.5000 -82.5000 Du        
    123 ****       243.2500 353.5000 -82.2500 Du        
    124 ****       243.2500 353.5000 -82.0000 Du        
    125 ****       243.2500 353.5000 -81.7500 Du        
    126 ****       243.2500 353.7500 -84.0000 Du        
    127 ****       243.2500 353.7500 -83.7500 Du        
    128 ****       243.2500 353.7500 -83.5000 Du        
    129 ****       243.2500 353.7500 -83.2500 Du        
    130 ****       243.2500 353.7500 -83.0000 Du        
    131 ****       243.2500 353.7500 -82.7500 Du        
    132 ****       243.2500 353.7500 -82.5000 Du        
    133 ****       243.2500 353.7500 -82.2500 Du        
    134 ****       243.2500 353.7500 -82.0000 Du        
    135 ****       243.2500 353.7500 -81.7500 Du        
    136 ****       243.2500 354.0000 -83.7500 Du        
    137 ****       243.2500 354.0000 -83.5000 Du        
    138 ****       243.2500 354.0000 -83.2500 Du        
    139 ****       243.2500 354.0000 -83.0000 Du        
    140 ****       243.2500 354.0000 -82.7500 Du        
    141 ****       243.2500 354.0000 -82.5000 Du        
    142 ****       243.2500 354.0000 -82.2500 Du        
    143 ****       243.2500 354.0000 -82.0000 Du        
    144 ****       243.2500 354.0000 -81.7500 Du        
    145 ****       243.2500 354.2500 -83.5000 Du        
    146 ****       243.2500 354.2500 -83.2500 Du        
    147 ****       243.2500 354.2500 -83.0000 Du        
    148 ****       243.2500 354.2500 -82.7500 Du        
    149 ****       243.2500 354.2500 -82.5000 Du        
    150 ****       243.2500 354.2500 -82.2500 Du        
    151 ****       243.2500 354.2500 -82.0000 Du        
    152 ****       243.2500 354.2500 -81.7500 Du        
    153 ****       243.2500 354.5000 -83.2500 Du        
    154 ****       243.2500 354.5000 -83.0000 Du        
    155 ****       243.2500 354.5000 -82.7500 Du        
    156 ****       243.2500 354.5000 -82.5000 Du        
    157 ****       243.2500 354.5000 -82.2500 Du        
    158 ****       243.2500 354.5000 -82.0000 Du        
    159 ****       243.2500 354.5000 -81.7500 Du        
    160 ****       243.2500 354.5000 -81.5000 Du        
    161 ****       243.2500 354.7500 -83.0000 Du        
    162 ****       243.2500 354.7500 -82.7500 Du        
    163 ****       243.2500 354.7500 -82.5000 Du        
    164 ****       243.2500 354.7500 -82.2500 Du        
    165 ****       243.2500 354.7500 -82.0000 Du        
    166 ****       243.2500 354.7500 -81.7500 Du        
    167 ****       243.2500 355.0000 -82.7500 Du        
    168 ****       243.5000 351.2500 -78.0000 Du        
    169 ****       243.5000 351.5000 -78.2500 Du        
    170 ****       243.5000 351.5000 -78.0000 Du        
    171 ****       243.5000 351.5000 -77.7500 Du        
    172 ****       243.5000 351.5000 -77.5000 Du        
    173 ****       243.5000 351.5000 -77.2500 Du        
    174 ****       243.5000 351.5000 -77.0000 Du        
    175 ****       243.5000 351.7500 -78.2500 Du        
    176 ****       243.5000 351.7500 -78.0000 Du        
    177 ****       243.5000 351.7500 -77.7500 Du        
    178 ****       243.5000 351.7500 -77.5000 Du        
    179 ****       243.5000 351.7500 -77.2500 Du        
    180 ****       243.5000 351.7500 -77.0000 Du        
    181 ****       243.5000 351.7500 -76.7500 Du        
    182 ****       243.5000 351.7500 -76.5000 Du        
    183 ****       243.5000 351.7500 -76.0000 Du        
    184 ****       243.5000 351.7500 -75.7500 Du        
    185 ****       243.5000 352.0000 -78.2500 Du        
    186 ****       243.5000 352.0000 -78.0000 Du        
    187 ****       243.5000 352.0000 -77.7500 Du        
    188 ****       243.5000 352.0000 -77.5000 Du        
    189 ****       243.5000 352.0000 -77.2500 Du        
    190 ****       243.5000 352.0000 -77.0000 Du        
    191 ****       243.5000 352.0000 -76.7500 Du        
    192 ****       243.5000 352.0000 -76.2500 Du        
    193 ****       243.5000 352.0000 -75.7500 Du        
    194 ****       243.5000 353.5000 -84.5000 Du        
    195 ****       243.5000 353.5000 -84.2500 Du        
    196 ****       243.5000 353.5000 -84.0000 Du        
    197 ****       243.5000 353.5000 -83.7500 Du        
    198 ****       243.5000 353.5000 -83.5000 Du        
    199 ****       243.5000 353.5000 -83.2500 Du        
    200 ****       243.5000 353.5000 -83.0000 Du        
    201 ****       243.5000 353.5000 -82.7500 Du        
    202 ****       243.5000 353.5000 -82.5000 Du        
    203 ****       243.5000 353.5000 -82.2500 Du        
    204 ****       243.5000 353.5000 -82.0000 Du        
    205 ****       243.5000 353.5000 -81.7500 Du        
    206 ****       243.5000 353.7500 -84.5000 Du        
    207 ****       243.5000 353.7500 -84.2500 Du        
    208 ****       243.5000 353.7500 -84.0000 Du        
    209 ****       243.5000 353.7500 -83.7500 Du        
    210 ****       243.5000 353.7500 -83.5000 Du        
    211 ****       243.5000 353.7500 -83.2500 Du        
    212 ****       243.5000 353.7500 -83.0000 Du        
    213 ****       243.5000 353.7500 -82.7500 Du        
    214 ****       243.5000 353.7500 -82.5000 Du        
    215 ****       243.5000 353.7500 -82.2500 Du        
    216 ****       243.5000 353.7500 -82.0000 Du        
    217 ****       243.5000 353.7500 -81.7500 Du        
    218 ****       243.5000 353.7500 -81.5000 Du        
    219 ****       243.5000 353.7500 -81.2500 Du        
    220 ****       243.5000 354.0000 -84.0000 Du        
    221 ****       243.5000 354.0000 -83.7500 Du        
    222 ****       243.5000 354.0000 -83.5000 Du        
    223 ****       243.5000 354.0000 -83.2500 Du        
    224 ****       243.5000 354.0000 -83.0000 Du        
    225 ****       243.5000 354.0000 -82.7500 Du        
    226 ****       243.5000 354.0000 -82.5000 Du        
    227 ****       243.5000 354.0000 -82.2500 Du        
    228 ****       243.5000 354.0000 -82.0000 Du        
    229 ****       243.5000 354.0000 -81.7500 Du        
    230 ****       243.5000 354.0000 -81.5000 Du        
    231 ****       243.5000 354.0000 -81.2500 Du        
    232 ****       243.5000 354.2500 -83.7500 Du        
    233 ****       243.5000 354.2500 -83.5000 Du        
    234 ****       243.5000 354.2500 -83.2500 Du        
    235 ****       243.5000 354.2500 -83.0000 Du        
    236 ****       243.5000 354.2500 -82.7500 Du        
    237 ****       243.5000 354.2500 -82.5000 Du        
    238 ****       243.5000 354.2500 -82.2500 Du        
    239 ****       243.5000 354.2500 -82.0000 Du        
    240 ****       243.5000 354.2500 -81.7500 Du        
    241 ****       243.5000 354.2500 -81.5000 Du        
    242 ****       243.5000 354.5000 -83.5000 Du        
    243 ****       243.5000 354.5000 -83.2500 Du        
    244 ****       243.5000 354.5000 -83.0000 Du        
    245 ****       243.5000 354.5000 -82.7500 Du        
    246 ****       243.5000 354.5000 -82.5000 Du        
    247 ****       243.5000 354.5000 -82.2500 Du        
    248 ****       243.5000 354.5000 -82.0000 Du        
    249 ****       243.5000 354.5000 -81.7500 Du        
    250 ****       243.5000 354.7500 -83.2500 Du        
    251 ****       243.5000 354.7500 -83.0000 Du        
    252 ****       243.5000 354.7500 -82.7500 Du        
    253 ****       243.5000 354.7500 -82.5000 Du        
    254 ****       243.5000 354.7500 -82.2500 Du        
    255 ****       243.5000 354.7500 -82.0000 Du        
    256 ****       243.7500 351.2500 -78.2500 Du        
    257 ****       243.7500 351.2500 -78.0000 Du        
    258 ****       243.7500 351.2500 -77.7500 Du        
    259 ****       243.7500 351.2500 -77.5000 Du        
    260 ****       243.7500 351.5000 -78.2500 Du        
    261 ****       243.7500 351.5000 -78.0000 Du        
    262 ****       243.7500 351.5000 -77.7500 Du        
    263 ****       243.7500 351.5000 -77.5000 Du        
    264 ****       243.7500 351.5000 -77.2500 Du        
    265 ****       243.7500 351.5000 -77.0000 Du        
    266 ****       243.7500 351.5000 -76.7500 Du        
    267 ****       243.7500 351.7500 -78.2500 Du        
    268 ****       243.7500 351.7500 -78.0000 Du        
    269 ****       243.7500 351.7500 -77.7500 Du        
    270 ****       243.7500 351.7500 -77.5000 Du        
    271 ****       243.7500 351.7500 -77.2500 Du        
    272 ****       243.7500 351.7500 -77.0000 Du        
    273 ****       243.7500 351.7500 -76.7500 Du        
    274 ****       243.7500 351.7500 -76.5000 Du        
    275 ****       243.7500 351.7500 -76.2500 Du        
    276 ****       243.7500 351.7500 -76.0000 Du        
    277 ****       243.7500 351.7500 -75.7500 Du        
    278 ****       243.7500 351.7500 -75.0000 Du        
    279 ****       243.7500 351.7500 -74.7500 Du        
    280 ****       243.7500 352.0000 -78.2500 Du        
    281 ****       243.7500 352.0000 -78.0000 Du        
    282 ****       243.7500 352.0000 -77.7500 Du        
    283 ****       243.7500 352.0000 -77.5000 Du        
    284 ****       243.7500 352.0000 -77.2500 Du        
    285 ****       243.7500 352.0000 -77.0000 Du        
    286 ****       243.7500 352.0000 -76.7500 Du        
    287 ****       243.7500 352.0000 -76.5000 Du        
    288 ****       243.7500 352.0000 -76.2500 Du        
    289 ****       243.7500 352.0000 -76.0000 Du        
    290 ****       243.7500 352.0000 -75.7500 Du        
    291 ****       243.7500 352.0000 -75.0000 Du        
    292 ****       243.7500 352.2500 -78.0000 Du        
    293 ****       243.7500 352.2500 -77.7500 Du        
    294 ****       243.7500 352.2500 -77.5000 Du        
    295 ****       243.7500 352.2500 -77.2500 Du        
    296 ****       243.7500 352.2500 -76.2500 Du        
    297 ****       243.7500 352.2500 -76.0000 Du        
    298 ****       243.7500 352.2500 -75.7500 Du        
    299 ****       243.7500 353.2500 -84.0000 Du        
    300 ****       243.7500 353.2500 -83.7500 Du        
    301 ****       243.7500 353.2500 -83.5000 Du        
    302 ****       243.7500 353.2500 -83.2500 Du        
    303 ****       243.7500 353.2500 -83.0000 Du        
    304 ****       243.7500 353.2500 -82.7500 Du        
    305 ****       243.7500 353.2500 -82.5000 Du        
    306 ****       243.7500 353.2500 -82.2500 Du        
    307 ****       243.7500 353.2500 -82.0000 Du        
    308 ****       243.7500 353.5000 -86.5000 Du        
    309 ****       243.7500 353.5000 -84.7500 Du        
    310 ****       243.7500 353.5000 -84.5000 Du        
    311 ****       243.7500 353.5000 -84.2500 Du        
    312 ****       243.7500 353.5000 -84.0000 Du        
    313 ****       243.7500 353.5000 -83.7500 Du        
    314 ****       243.7500 353.5000 -83.5000 Du        
    315 ****       243.7500 353.5000 -83.2500 Du        
    316 ****       243.7500 353.5000 -83.0000 Du        
    317 ****       243.7500 353.5000 -82.7500 Du        
    318 ****       243.7500 353.5000 -82.5000 Du        
    319 ****       243.7500 353.5000 -82.2500 Du        
    320 ****       243.7500 353.5000 -82.0000 Du        
    321 ****       243.7500 353.5000 -81.7500 Du        
    322 ****       243.7500 353.5000 -81.5000 Du        
    323 ****       243.7500 353.7500 -86.5000 Du        
    324 ****       243.7500 353.7500 -86.2500 Du        
    325 ****       243.7500 353.7500 -86.0000 Du        
    326 ****       243.7500 353.7500 -85.7500 Du        
    327 ****       243.7500 353.7500 -85.0000 Du        
    328 ****       243.7500 353.7500 -84.7500 Du        
    329 ****       243.7500 353.7500 -84.5000 Du        
    330 ****       243.7500 353.7500 -84.2500 Du        
    331 ****       243.7500 353.7500 -84.0000 Du        
    332 ****       243.7500 353.7500 -83.7500 Du        
    333 ****       243.7500 353.7500 -83.5000 Du        
    334 ****       243.7500 353.7500 -83.2500 Du        
    335 ****       243.7500 353.7500 -83.0000 Du        
    336 ****       243.7500 353.7500 -82.7500 Du        
    337 ****       243.7500 353.7500 -82.5000 Du        
    338 ****       243.7500 353.7500 -82.2500 Du        
    339 ****       243.7500 353.7500 -82.0000 Du        
    340 ****       243.7500 353.7500 -81.7500 Du        
    341 ****       243.7500 353.7500 -81.5000 Du        
    342 ****       243.7500 353.7500 -81.2500 Du        
    343 ****       243.7500 354.0000 -86.0000 Du        
    344 ****       243.7500 354.0000 -84.5000 Du        
    345 ****       243.7500 354.0000 -84.2500 Du        
    346 ****       243.7500 354.0000 -84.0000 Du        
    347 ****       243.7500 354.0000 -83.7500 Du        
    348 ****       243.7500 354.0000 -83.5000 Du        
    349 ****       243.7500 354.0000 -83.2500 Du        
    350 ****       243.7500 354.0000 -83.0000 Du        
    351 ****       243.7500 354.0000 -82.7500 Du        
    352 ****       243.7500 354.0000 -82.5000 Du        
    353 ****       243.7500 354.0000 -82.2500 Du        
    354 ****       243.7500 354.0000 -82.0000 Du        
    355 ****       243.7500 354.0000 -81.7500 Du        
    356 ****       243.7500 354.0000 -81.5000 Du        
    357 ****       243.7500 354.0000 -81.2500 Du        
    358 ****       243.7500 354.2500 -84.0000 Du        
    359 ****       243.7500 354.2500 -83.7500 Du        
    360 ****       243.7500 354.2500 -83.5000 Du        
    361 ****       243.7500 354.2500 -83.2500 Du        
    362 ****       243.7500 354.2500 -83.0000 Du        
    363 ****       243.7500 354.2500 -82.7500 Du        
    364 ****       243.7500 354.2500 -82.5000 Du        
    365 ****       243.7500 354.2500 -82.2500 Du        
    366 ****       243.7500 354.2500 -82.0000 Du        
    367 ****       243.7500 354.2500 -81.7500 Du        
    368 ****       243.7500 354.2500 -81.5000 Du        
    369 ****       243.7500 354.5000 -83.7500 Du        
    370 ****       243.7500 354.5000 -83.5000 Du        
    371 ****       243.7500 354.5000 -83.2500 Du        
    372 ****       243.7500 354.5000 -83.0000 Du        
    373 ****       243.7500 354.5000 -82.7500 Du        
    374 ****       243.7500 354.5000 -82.5000 Du        
    375 ****       243.7500 354.5000 -82.2500 Du        
    376 ****       243.7500 354.5000 -82.0000 Du        
    377 ****       243.7500 354.5000 -81.7500 Du        
    378 ****       243.7500 354.7500 -83.2500 Du        
    379 ****       243.7500 354.7500 -83.0000 Du        
    380 ****       243.7500 354.7500 -82.7500 Du        
    381 ****       244.0000 351.0000 -78.0000 Du        
    382 ****       244.0000 351.0000 -77.7500 Du        
    383 ****       244.0000 351.2500 -78.2500 Du        
    384 ****       244.0000 351.2500 -78.0000 Du        
    385 ****       244.0000 351.2500 -77.7500 Du        
    386 ****       244.0000 351.2500 -77.5000 Du        
    387 ****       244.0000 351.2500 -77.2500 Du        
    388 ****       244.0000 351.5000 -78.2500 Du        
    389 ****       244.0000 351.5000 -78.0000 Du        
    390 ****       244.0000 351.5000 -77.7500 Du        
    391 ****       244.0000 351.5000 -77.5000 Du        
    392 ****       244.0000 351.5000 -77.2500 Du        
    393 ****       244.0000 351.5000 -77.0000 Du        
    394 ****       244.0000 351.5000 -76.7500 Du        
    395 ****       244.0000 351.7500 -78.2500 Du        
    396 ****       244.0000 351.7500 -78.0000 Du        
    397 ****       244.0000 351.7500 -77.7500 Du        
    398 ****       244.0000 351.7500 -77.5000 Du        
    399 ****       244.0000 351.7500 -77.2500 Du        
    400 ****       244.0000 351.7500 -77.0000 Du        
    401 ****       244.0000 351.7500 -76.7500 Du        
    402 ****       244.0000 351.7500 -76.5000 Du        
    403 ****       244.0000 351.7500 -76.2500 Du        
    404 ****       244.0000 352.0000 -78.2500 Du        
    405 ****       244.0000 352.0000 -78.0000 Du        
    406 ****       244.0000 352.0000 -77.7500 Du        
    407 ****       244.0000 352.0000 -77.5000 Du        
    408 ****       244.0000 352.0000 -77.2500 Du        
    409 ****       244.0000 352.0000 -77.0000 Du        
    410 ****       244.0000 352.0000 -76.7500 Du        
    411 ****       244.0000 352.0000 -76.5000 Du        
    412 ****       244.0000 352.0000 -76.2500 Du        
    413 ****       244.0000 352.0000 -76.0000 Du        
    414 ****       244.0000 352.0000 -75.7500 Du        
    415 ****       244.0000 352.2500 -78.2500 Du        
    416 ****       244.0000 352.2500 -78.0000 Du        
    417 ****       244.0000 352.2500 -77.7500 Du        
    418 ****       244.0000 352.2500 -77.5000 Du        
    419 ****       244.0000 352.2500 -77.2500 Du        
    420 ****       244.0000 352.2500 -77.0000 Du        
    421 ****       244.0000 352.2500 -76.7500 Du        
    422 ****       244.0000 352.2500 -76.5000 Du        
    423 ****       244.0000 352.2500 -76.2500 Du        
    424 ****       244.0000 352.2500 -76.0000 Du        
    425 ****       244.0000 352.2500 -75.7500 Du        
    426 ****       244.0000 353.2500 -84.2500 Du        
    427 ****       244.0000 353.2500 -84.0000 Du        
    428 ****       244.0000 353.2500 -83.7500 Du        
    429 ****       244.0000 353.2500 -83.5000 Du        
    430 ****       244.0000 353.2500 -83.2500 Du        
    431 ****       244.0000 353.2500 -83.0000 Du        
    432 ****       244.0000 353.2500 -82.7500 Du        
    433 ****       244.0000 353.2500 -82.5000 Du        
    434 ****       244.0000 353.2500 -82.2500 Du        
    435 ****       244.0000 353.2500 -82.0000 Du        
    436 ****       244.0000 353.5000 -84.7500 Du        
    437 ****       244.0000 353.5000 -84.5000 Du        
    438 ****       244.0000 353.5000 -84.2500 Du        
    439 ****       244.0000 353.5000 -84.0000 Du        
    440 ****       244.0000 353.5000 -83.7500 Du        
    441 ****       244.0000 353.5000 -83.5000 Du        
    442 ****       244.0000 353.5000 -83.2500 Du        
    443 ****       244.0000 353.5000 -83.0000 Du        
    444 ****       244.0000 353.5000 -82.7500 Du        
    445 ****       244.0000 353.5000 -82.5000 Du        
    446 ****       244.0000 353.5000 -82.2500 Du        
    447 ****       244.0000 353.5000 -82.0000 Du        
    448 ****       244.0000 353.5000 -81.7500 Du        
    449 ****       244.0000 353.5000 -81.5000 Du        
    450 ****       244.0000 353.7500 -86.5000 Du        
    451 ****       244.0000 353.7500 -86.2500 Du        
    452 ****       244.0000 353.7500 -86.0000 Du        
    453 ****       244.0000 353.7500 -85.7500 Du        
    454 ****       244.0000 353.7500 -85.5000 Du        
    455 ****       244.0000 353.7500 -85.2500 Du        
    456 ****       244.0000 353.7500 -85.0000 Du        
    457 ****       244.0000 353.7500 -84.7500 Du        
    458 ****       244.0000 353.7500 -84.5000 Du        
    459 ****       244.0000 353.7500 -84.2500 Du        
    460 ****       244.0000 353.7500 -84.0000 Du        
    461 ****       244.0000 353.7500 -83.7500 Du        
    462 ****       244.0000 353.7500 -83.5000 Du        
    463 ****       244.0000 353.7500 -83.2500 Du        
    464 ****       244.0000 353.7500 -83.0000 Du        
    465 ****       244.0000 353.7500 -82.7500 Du        
    466 ****       244.0000 353.7500 -82.5000 Du        
    467 ****       244.0000 353.7500 -82.2500 Du        
    468 ****       244.0000 353.7500 -82.0000 Du        
    469 ****       244.0000 353.7500 -81.7500 Du        
    470 ****       244.0000 353.7500 -81.5000 Du        
    471 ****       244.0000 353.7500 -81.2500 Du        
    472 ****       244.0000 354.0000 -86.0000 Du        
    473 ****       244.0000 354.0000 -85.7500 Du        
    474 ****       244.0000 354.0000 -85.5000 Du        
    475 ****       244.0000 354.0000 -85.2500 Du        
    476 ****       244.0000 354.0000 -85.0000 Du        
    477 ****       244.0000 354.0000 -84.7500 Du        
    478 ****       244.0000 354.0000 -84.5000 Du        
    479 ****       244.0000 354.0000 -84.2500 Du        
    480 ****       244.0000 354.0000 -84.0000 Du        
    481 ****       244.0000 354.0000 -83.7500 Du        
    482 ****       244.0000 354.0000 -83.5000 Du        
    483 ****       244.0000 354.0000 -83.2500 Du        
    484 ****       244.0000 354.0000 -83.0000 Du        
    485 ****       244.0000 354.0000 -82.7500 Du        
    486 ****       244.0000 354.0000 -82.5000 Du        
    487 ****       244.0000 354.0000 -82.2500 Du        
    488 ****       244.0000 354.0000 -82.0000 Du        
    489 ****       244.0000 354.0000 -81.7500 Du        
    490 ****       244.0000 354.0000 -81.5000 Du        
    491 ****       244.0000 354.0000 -81.2500 Du        
    492 ****       244.0000 354.2500 -84.5000 Du        
    493 ****       244.0000 354.2500 -84.2500 Du        
    494 ****       244.0000 354.2500 -84.0000 Du        
    495 ****       244.0000 354.2500 -83.7500 Du        
    496 ****       244.0000 354.2500 -83.5000 Du        
    497 ****       244.0000 354.2500 -83.2500 Du        
    498 ****       244.0000 354.2500 -83.0000 Du        
    499 ****       244.0000 354.2500 -82.7500 Du        
    500 ****       244.0000 354.2500 -82.5000 Du        
    501 ****       244.0000 354.2500 -82.2500 Du        
    502 ****       244.0000 354.2500 -82.0000 Du        
    503 ****       244.0000 354.2500 -81.7500 Du        
    504 ****       244.0000 354.2500 -81.5000 Du        
    505 ****       244.0000 354.5000 -83.7500 Du        
    506 ****       244.0000 354.5000 -83.5000 Du        
    507 ****       244.0000 354.5000 -83.2500 Du        
    508 ****       244.0000 354.5000 -83.0000 Du        
    509 ****       244.0000 354.5000 -82.7500 Du        
    510 ****       244.0000 354.5000 -82.5000 Du        
    511 ****       244.0000 354.7500 -83.5000 Du        
    512 ****       244.0000 354.7500 -83.2500 Du        
    513 ****       244.2500 351.0000 -78.0000 Du        
    514 ****       244.2500 351.0000 -77.7500 Du        
    515 ****       244.2500 351.2500 -78.2500 Du        
    516 ****       244.2500 351.2500 -78.0000 Du        
    517 ****       244.2500 351.2500 -77.7500 Du        
    518 ****       244.2500 351.2500 -77.5000 Du        
    519 ****       244.2500 351.5000 -78.2500 Du        
    520 ****       244.2500 351.5000 -78.0000 Du        
    521 ****       244.2500 351.5000 -77.7500 Du        
    522 ****       244.2500 351.5000 -77.5000 Du        
    523 ****       244.2500 351.5000 -77.2500 Du        
    524 ****       244.2500 351.7500 -78.2500 Du        
    525 ****       244.2500 351.7500 -78.0000 Du        
    526 ****       244.2500 351.7500 -77.7500 Du        
    527 ****       244.2500 351.7500 -77.5000 Du        
    528 ****       244.2500 351.7500 -77.2500 Du        
    529 ****       244.2500 351.7500 -77.0000 Du        
    530 ****       244.2500 352.0000 -78.5000 Du        
    531 ****       244.2500 352.0000 -78.2500 Du        
    532 ****       244.2500 352.0000 -78.0000 Du        
    533 ****       244.2500 352.0000 -77.7500 Du        
    534 ****       244.2500 352.0000 -77.5000 Du        
    535 ****       244.2500 352.0000 -77.2500 Du        
    536 ****       244.2500 352.0000 -77.0000 Du        
    537 ****       244.2500 352.0000 -76.7500 Du        
    538 ****       244.2500 352.2500 -78.2500 Du        
    539 ****       244.2500 352.2500 -78.0000 Du        
    540 ****       244.2500 352.2500 -77.7500 Du        
    541 ****       244.2500 352.2500 -77.5000 Du        
    542 ****       244.2500 352.2500 -77.2500 Du        
    543 ****       244.2500 352.2500 -77.0000 Du        
    544 ****       244.2500 352.2500 -76.7500 Du        
    545 ****       244.2500 352.2500 -76.5000 Du        
    546 ****       244.2500 352.2500 -76.2500 Du        
    547 ****       244.2500 353.0000 -83.0000 Du        
    548 ****       244.2500 353.2500 -84.2500 Du        
    549 ****       244.2500 353.2500 -84.0000 Du        
    550 ****       244.2500 353.2500 -83.7500 Du        
    551 ****       244.2500 353.2500 -83.5000 Du        
    552 ****       244.2500 353.2500 -83.2500 Du        
    553 ****       244.2500 353.2500 -83.0000 Du        
    554 ****       244.2500 353.2500 -82.7500 Du        
    555 ****       244.2500 353.2500 -82.5000 Du        
    556 ****       244.2500 353.2500 -82.2500 Du        
    557 ****       244.2500 353.2500 -82.0000 Du        
    558 ****       244.2500 353.5000 -84.7500 Du        
    559 ****       244.2500 353.5000 -84.5000 Du        
    560 ****       244.2500 353.5000 -84.2500 Du        
    561 ****       244.2500 353.5000 -84.0000 Du        
    562 ****       244.2500 353.5000 -83.7500 Du        
    563 ****       244.2500 353.5000 -83.5000 Du        
    564 ****       244.2500 353.5000 -83.2500 Du        
    565 ****       244.2500 353.5000 -83.0000 Du        
    566 ****       244.2500 353.5000 -82.7500 Du        
    567 ****       244.2500 353.5000 -82.5000 Du        
    568 ****       244.2500 353.5000 -82.2500 Du        
    569 ****       244.2500 353.5000 -82.0000 Du        
    570 ****       244.2500 353.5000 -81.7500 Du        
    571 ****       244.2500 353.5000 -81.5000 Du        
    572 ****       244.2500 353.7500 -86.5000 Du        
    573 ****       244.2500 353.7500 -86.2500 Du        
    574 ****       244.2500 353.7500 -86.0000 Du        
    575 ****       244.2500 353.7500 -85.7500 Du        
    576 ****       244.2500 353.7500 -85.5000 Du        
    577 ****       244.2500 353.7500 -85.2500 Du        
    578 ****       244.2500 353.7500 -85.0000 Du        
    579 ****       244.2500 353.7500 -84.7500 Du        
    580 ****       244.2500 353.7500 -84.5000 Du        
    581 ****       244.2500 353.7500 -84.2500 Du        
    582 ****       244.2500 353.7500 -84.0000 Du        
    583 ****       244.2500 353.7500 -83.7500 Du        
    584 ****       244.2500 353.7500 -83.5000 Du        
    585 ****       244.2500 353.7500 -83.2500 Du        
    586 ****       244.2500 353.7500 -83.0000 Du        
    587 ****       244.2500 353.7500 -82.7500 Du        
    588 ****       244.2500 353.7500 -82.5000 Du        
    589 ****       244.2500 353.7500 -82.2500 Du        
    590 ****       244.2500 353.7500 -82.0000 Du        
    591 ****       244.2500 353.7500 -81.7500 Du        
    592 ****       244.2500 353.7500 -81.5000 Du        
    593 ****       244.2500 353.7500 -81.2500 Du        
    594 ****       244.2500 354.0000 -86.5000 Du        
    595 ****       244.2500 354.0000 -86.2500 Du        
    596 ****       244.2500 354.0000 -86.0000 Du        
    597 ****       244.2500 354.0000 -85.7500 Du        
    598 ****       244.2500 354.0000 -85.5000 Du        
    599 ****       244.2500 354.0000 -85.2500 Du        
    600 ****       244.2500 354.0000 -85.0000 Du        
    601 ****       244.2500 354.0000 -84.7500 Du        
    602 ****       244.2500 354.0000 -84.5000 Du        
    603 ****       244.2500 354.0000 -84.2500 Du        
    604 ****       244.2500 354.0000 -84.0000 Du        
    605 ****       244.2500 354.0000 -83.7500 Du        
    606 ****       244.2500 354.0000 -83.5000 Du        
    607 ****       244.2500 354.0000 -83.2500 Du        
    608 ****       244.2500 354.0000 -83.0000 Du        
    609 ****       244.2500 354.0000 -82.7500 Du        
    610 ****       244.2500 354.0000 -82.5000 Du        
    611 ****       244.2500 354.0000 -82.2500 Du        
    612 ****       244.2500 354.0000 -82.0000 Du        
    613 ****       244.2500 354.0000 -81.7500 Du        
    614 ****       244.2500 354.0000 -81.5000 Du        
    615 ****       244.2500 354.0000 -81.2500 Du        
    616 ****       244.2500 354.2500 -86.5000 Du        
    617 ****       244.2500 354.2500 -86.2500 Du        
    618 ****       244.2500 354.2500 -86.0000 Du        
    619 ****       244.2500 354.2500 -84.5000 Du        
    620 ****       244.2500 354.2500 -84.2500 Du        
    621 ****       244.2500 354.2500 -84.0000 Du        
    622 ****       244.2500 354.2500 -83.7500 Du        
    623 ****       244.2500 354.2500 -83.5000 Du        
    624 ****       244.2500 354.2500 -83.2500 Du        
    625 ****       244.2500 354.2500 -83.0000 Du        
    626 ****       244.2500 354.2500 -82.7500 Du        
    627 ****       244.2500 354.2500 -82.5000 Du        
    628 ****       244.2500 354.2500 -82.2500 Du        
    629 ****       244.2500 354.2500 -82.0000 Du        
    630 ****       244.2500 354.2500 -81.7500 Du        
    631 ****       244.2500 354.5000 -86.5000 Du        
    632 ****       244.2500 354.5000 -83.7500 Du        
    633 ****       244.2500 354.5000 -83.5000 Du        
    634 ****       244.2500 354.5000 -83.2500 Du        
    635 ****       244.2500 354.5000 -83.0000 Du        
    636 ****       244.5000 351.0000 -78.0000 Du        
    637 ****       244.5000 351.0000 -77.7500 Du        
    638 ****       244.5000 351.2500 -78.2500 Du        
    639 ****       244.5000 351.2500 -78.0000 Du        
    640 ****       244.5000 351.2500 -77.7500 Du        
    641 ****       244.5000 351.5000 -78.2500 Du        
    642 ****       244.5000 351.5000 -78.0000 Du        
    643 ****       244.5000 351.5000 -77.7500 Du        
    644 ****       244.5000 351.5000 -77.5000 Du        
    645 ****       244.5000 351.7500 -78.2500 Du        
    646 ****       244.5000 351.7500 -78.0000 Du        
    647 ****       244.5000 351.7500 -77.7500 Du        
    648 ****       244.5000 351.7500 -77.5000 Du        
    649 ****       244.5000 351.7500 -77.2500 Du        
    650 ****       244.5000 352.0000 -78.2500 Du        
    651 ****       244.5000 352.0000 -78.0000 Du        
    652 ****       244.5000 352.0000 -77.7500 Du        
    653 ****       244.5000 352.0000 -77.5000 Du        
    654 ****       244.5000 352.0000 -77.2500 Du        
    655 ****       244.5000 352.0000 -77.0000 Du        
    656 ****       244.5000 352.2500 -78.2500 Du        
    657 ****       244.5000 352.2500 -78.0000 Du        
    658 ****       244.5000 352.2500 -77.7500 Du        
    659 ****       244.5000 352.2500 -77.5000 Du        
    660 ****       244.5000 352.2500 -77.2500 Du        
    661 ****       244.5000 352.2500 -77.0000 Du        
    662 ****       244.5000 353.0000 -83.7500 Du        
    663 ****       244.5000 353.0000 -83.5000 Du        
    664 ****       244.5000 353.0000 -83.2500 Du        
    665 ****       244.5000 353.0000 -83.0000 Du        
    666 ****       244.5000 353.0000 -82.7500 Du        
    667 ****       244.5000 353.2500 -84.2500 Du        
    668 ****       244.5000 353.2500 -84.0000 Du        
    669 ****       244.5000 353.2500 -83.7500 Du        
    670 ****       244.5000 353.2500 -83.5000 Du        
    671 ****       244.5000 353.2500 -83.2500 Du        
    672 ****       244.5000 353.2500 -83.0000 Du        
    673 ****       244.5000 353.2500 -82.7500 Du        
    674 ****       244.5000 353.2500 -82.5000 Du        
    675 ****       244.5000 353.2500 -82.2500 Du        
    676 ****       244.5000 353.2500 -82.0000 Du        
    677 ****       244.5000 353.5000 -84.5000 Du        
    678 ****       244.5000 353.5000 -84.2500 Du        
    679 ****       244.5000 353.5000 -84.0000 Du        
    680 ****       244.5000 353.5000 -83.7500 Du        
    681 ****       244.5000 353.5000 -83.5000 Du        
    682 ****       244.5000 353.5000 -83.2500 Du        
    683 ****       244.5000 353.5000 -83.0000 Du        
    684 ****       244.5000 353.5000 -82.7500 Du        
    685 ****       244.5000 353.5000 -82.5000 Du        
    686 ****       244.5000 353.5000 -82.2500 Du        
    687 ****       244.5000 353.5000 -82.0000 Du        
    688 ****       244.5000 353.5000 -81.7500 Du        
    689 ****       244.5000 353.7500 -85.0000 Du        
    690 ****       244.5000 353.7500 -84.7500 Du        
    691 ****       244.5000 353.7500 -84.5000 Du        
    692 ****       244.5000 353.7500 -84.2500 Du        
    693 ****       244.5000 353.7500 -84.0000 Du        
    694 ****       244.5000 353.7500 -83.7500 Du        
    695 ****       244.5000 353.7500 -83.5000 Du        
    696 ****       244.5000 353.7500 -83.2500 Du        
    697 ****       244.5000 353.7500 -83.0000 Du        
    698 ****       244.5000 353.7500 -82.7500 Du        
    699 ****       244.5000 353.7500 -82.5000 Du        
    700 ****       244.5000 353.7500 -82.2500 Du        
    701 ****       244.5000 353.7500 -82.0000 Du        
    702 ****       244.5000 353.7500 -81.7500 Du        
    703 ****       244.5000 354.0000 -86.5000 Du        
    704 ****       244.5000 354.0000 -86.2500 Du        
    705 ****       244.5000 354.0000 -86.0000 Du        
    706 ****       244.5000 354.0000 -85.0000 Du        
    707 ****       244.5000 354.0000 -84.7500 Du        
    708 ****       244.5000 354.0000 -84.5000 Du        
    709 ****       244.5000 354.0000 -84.2500 Du        
    710 ****       244.5000 354.0000 -84.0000 Du        
    711 ****       244.5000 354.0000 -83.7500 Du        
    712 ****       244.5000 354.0000 -83.5000 Du        
    713 ****       244.5000 354.0000 -83.2500 Du        
    714 ****       244.5000 354.0000 -83.0000 Du        
    715 ****       244.5000 354.0000 -82.7500 Du        
    716 ****       244.5000 354.0000 -82.5000 Du        
    717 ****       244.5000 354.0000 -82.2500 Du        
    718 ****       244.5000 354.0000 -82.0000 Du        
    719 ****       244.5000 354.0000 -81.7500 Du        
    720 ****       244.5000 354.2500 -86.5000 Du        
    721 ****       244.5000 354.2500 -86.2500 Du        
    722 ****       244.5000 354.2500 -84.0000 Du        
    723 ****       244.5000 354.2500 -83.7500 Du        
    724 ****       244.5000 354.2500 -83.5000 Du        
    725 ****       244.5000 354.2500 -83.2500 Du        
    726 ****       244.5000 354.2500 -83.0000 Du        
    727 ****       244.5000 354.2500 -82.7500 Du        
    728 ****       244.7500 351.2500 -78.0000 Du        
    729 ****       244.7500 351.5000 -78.2500 Du        
    730 ****       244.7500 351.5000 -78.0000 Du        
    731 ****       244.7500 351.5000 -77.7500 Du        
    732 ****       244.7500 351.7500 -78.2500 Du        
    733 ****       244.7500 351.7500 -78.0000 Du        
    734 ****       244.7500 351.7500 -77.7500 Du        
    735 ****       244.7500 352.0000 -78.2500 Du        
    736 ****       244.7500 352.0000 -78.0000 Du        
    737 ****       244.7500 352.0000 -77.7500 Du        
    738 ****       244.7500 352.0000 -77.5000 Du        
    739 ****       244.7500 352.2500 -78.2500 Du        
    740 ****       244.7500 352.2500 -78.0000 Du        
    741 ****       244.7500 352.2500 -77.7500 Du        
    742 ****       244.7500 352.2500 -77.5000 Du        
    743 ****       244.7500 353.0000 -83.7500 Du        
    744 ****       244.7500 353.0000 -83.5000 Du        
    745 ****       244.7500 353.0000 -83.2500 Du        
    746 ****       244.7500 353.0000 -83.0000 Du        
    747 ****       244.7500 353.0000 -82.7500 Du        
    748 ****       244.7500 353.0000 -82.5000 Du        
    749 ****       244.7500 353.2500 -84.2500 Du        
    750 ****       244.7500 353.2500 -84.0000 Du        
    751 ****       244.7500 353.2500 -83.7500 Du        
    752 ****       244.7500 353.2500 -83.5000 Du        
    753 ****       244.7500 353.2500 -83.2500 Du        
    754 ****       244.7500 353.2500 -83.0000 Du        
    755 ****       244.7500 353.2500 -82.7500 Du        
    756 ****       244.7500 353.2500 -82.5000 Du        
    757 ****       244.7500 353.2500 -82.2500 Du        
    758 ****       244.7500 353.2500 -82.0000 Du        
    759 ****       244.7500 353.5000 -84.5000 Du        
    760 ****       244.7500 353.5000 -84.2500 Du        
    761 ****       244.7500 353.5000 -84.0000 Du        
    762 ****       244.7500 353.5000 -83.7500 Du        
    763 ****       244.7500 353.5000 -83.5000 Du        
    764 ****       244.7500 353.5000 -83.2500 Du        
    765 ****       244.7500 353.5000 -83.0000 Du        
    766 ****       244.7500 353.5000 -82.7500 Du        
    767 ****       244.7500 353.5000 -82.5000 Du        
    768 ****       244.7500 353.5000 -82.2500 Du        
    769 ****       244.7500 353.5000 -82.0000 Du        
    770 ****       244.7500 353.5000 -81.7500 Du        
    771 ****       244.7500 353.7500 -84.7500 Du        
    772 ****       244.7500 353.7500 -84.5000 Du        
    773 ****       244.7500 353.7500 -84.2500 Du        
    774 ****       244.7500 353.7500 -84.0000 Du        
    775 ****       244.7500 353.7500 -83.7500 Du        
    776 ****       244.7500 353.7500 -83.5000 Du        
    777 ****       244.7500 353.7500 -83.2500 Du        
    778 ****       244.7500 353.7500 -83.0000 Du        
    779 ****       244.7500 353.7500 -82.7500 Du        
    780 ****       244.7500 353.7500 -82.5000 Du        
    781 ****       244.7500 353.7500 -82.2500 Du        
    782 ****       244.7500 353.7500 -82.0000 Du        
    783 ****       244.7500 353.7500 -81.7500 Du        
    784 ****       244.7500 354.0000 -84.2500 Du        
    785 ****       244.7500 354.0000 -84.0000 Du        
    786 ****       244.7500 354.0000 -83.7500 Du        
    787 ****       244.7500 354.0000 -83.5000 Du        
    788 ****       244.7500 354.0000 -83.2500 Du        
    789 ****       244.7500 354.0000 -83.0000 Du        
    790 ****       245.0000 351.7500 -78.2500 Du        
    791 ****       245.0000 351.7500 -78.0000 Du        
    792 ****       245.0000 352.0000 -78.2500 Du        
    793 ****       245.0000 352.0000 -78.0000 Du        
    794 ****       245.0000 352.0000 -77.7500 Du        
    795 ****       245.0000 352.2500 -78.2500 Du        
    796 ****       245.0000 352.2500 -78.0000 Du        
    797 ****       245.0000 352.2500 -77.7500 Du        
    798 ****       245.0000 352.7500 -83.2500 Du        
    799 ****       245.0000 352.7500 -83.0000 Du        
    800 ****       245.0000 353.0000 -83.7500 Du        
    801 ****       245.0000 353.0000 -83.5000 Du        
    802 ****       245.0000 353.0000 -83.2500 Du        
    803 ****       245.0000 353.0000 -83.0000 Du        
    804 ****       245.0000 353.0000 -82.7500 Du        
    805 ****       245.0000 353.0000 -82.5000 Du        
    806 ****       245.0000 353.2500 -84.0000 Du        
    807 ****       245.0000 353.2500 -83.7500 Du        
    808 ****       245.0000 353.2500 -83.5000 Du        
    809 ****       245.0000 353.2500 -83.2500 Du        
    810 ****       245.0000 353.2500 -83.0000 Du        
    811 ****       245.0000 353.2500 -82.7500 Du        
    812 ****       245.0000 353.2500 -82.5000 Du        
    813 ****       245.0000 353.2500 -82.2500 Du        
    814 ****       245.0000 353.2500 -82.0000 Du        
    815 ****       245.0000 353.5000 -84.2500 Du        
    816 ****       245.0000 353.5000 -84.0000 Du        
    817 ****       245.0000 353.5000 -83.7500 Du        
    818 ****       245.0000 353.5000 -83.5000 Du        
    819 ****       245.0000 353.5000 -83.2500 Du        
    820 ****       245.0000 353.5000 -83.0000 Du        
    821 ****       245.0000 353.5000 -82.7500 Du        
    822 ****       245.0000 353.5000 -82.5000 Du        
    823 ****       245.0000 353.5000 -82.2500 Du        
    824 ****       245.0000 353.5000 -82.0000 Du        
    825 ****       245.0000 353.5000 -81.7500 Du        
    826 ****       245.0000 353.7500 -84.2500 Du        
    827 ****       245.0000 353.7500 -84.0000 Du        
    828 ****       245.0000 353.7500 -83.7500 Du        
    829 ****       245.0000 353.7500 -83.5000 Du        
    830 ****       245.0000 353.7500 -83.2500 Du        
    831 ****       245.0000 353.7500 -83.0000 Du        
    832 ****       245.2500 352.7500 -83.2500 Du        
    833 ****       245.2500 352.7500 -83.0000 Du        
    834 ****       245.2500 353.0000 -83.7500 Du        
    835 ****       245.2500 353.0000 -83.5000 Du        
    836 ****       245.2500 353.0000 -83.2500 Du        
    837 ****       245.2500 353.0000 -83.0000 Du        
    838 ****       245.2500 353.0000 -82.7500 Du        
    839 ****       245.2500 353.0000 -82.5000 Du        
    840 ****       245.2500 353.2500 -84.0000 Du        
    841 ****       245.2500 353.2500 -83.7500 Du        
    842 ****       245.2500 353.2500 -83.5000 Du        
    843 ****       245.2500 353.2500 -83.2500 Du        
    844 ****       245.2500 353.2500 -83.0000 Du        
    845 ****       245.2500 353.2500 -82.7500 Du        
    846 ****       245.2500 353.2500 -82.5000 Du        
    847 ****       245.2500 353.5000 -84.0000 Du        
    848 ****       245.2500 353.5000 -83.7500 Du        
    849 ****       245.2500 353.5000 -83.5000 Du        
    850 ****       245.2500 353.5000 -83.2500 Du        
    851 ****       245.2500 353.5000 -83.0000 Du        
    852 ****       245.5000 353.0000 -83.5000 Du        
    853 ****       245.5000 353.0000 -83.2500 Du        
    854 ****       245.5000 353.0000 -83.0000 Du        
    855 ****       245.5000 353.0000 -82.7500 Du        
    856 ****       245.5000 353.2500 -83.5000 Du        
    857 ****       245.5000 353.2500 -83.2500 Du        
    858 ****       245.5000 353.2500 -83.0000 Du        
    859 ****       245.7500 353.0000 -83.2500 Du        
    860 ****       245.7500 353.0000 -83.0000 Du        
    861 ****       246.2500 354.5000 -78.5000 Du        
    862 ****       246.2500 354.5000 -78.2500 Du        
    863 ****       246.2500 354.5000 -78.0000 Du        
    864 ****       246.2500 354.7500 -78.5000 Du        
    865 ****       246.2500 354.7500 -78.2500 Du        
    866 ****       246.2500 354.7500 -78.0000 Du        
    867 ****       246.2500 354.7500 -77.7500 Du        
    868 ****       246.2500 355.0000 -78.2500 Du        
    869 ****       246.2500 355.0000 -78.0000 Du        
    870 ****       246.2500 355.0000 -77.7500 Du        
    871 ****       246.5000 353.7500 -79.2500 Du        
    872 ****       246.5000 353.7500 -79.0000 Du        
    873 ****       246.5000 354.0000 -79.2500 Du        
    874 ****       246.5000 354.0000 -79.0000 Du        
    875 ****       246.5000 354.0000 -78.7500 Du        
    876 ****       246.5000 354.0000 -78.5000 Du        
    877 ****       246.5000 354.0000 -78.2500 Du        
    878 ****       246.5000 354.2500 -79.0000 Du        
    879 ****       246.5000 354.2500 -78.7500 Du        
    880 ****       246.5000 354.2500 -78.5000 Du        
    881 ****       246.5000 354.2500 -78.2500 Du        
    882 ****       246.5000 354.2500 -78.0000 Du        
    883 ****       246.5000 354.2500 -77.7500 Du        
    884 ****       246.5000 354.5000 -78.5000 Du        
    885 ****       246.5000 354.5000 -78.2500 Du        
    886 ****       246.5000 354.5000 -78.0000 Du        
    887 ****       246.5000 354.5000 -77.7500 Du        
    888 ****       246.5000 354.5000 -77.5000 Du        
    889 ****       246.5000 354.7500 -78.5000 Du        
    890 ****       246.5000 354.7500 -78.2500 Du        
    891 ****       246.5000 354.7500 -78.0000 Du        
    892 ****       246.5000 354.7500 -77.7500 Du        
    893 ****       246.5000 354.7500 -77.5000 Du        
    894 ****       246.5000 354.7500 -77.2500 Du        
    895 ****       246.5000 355.0000 -78.2500 Du        
    896 ****       246.5000 355.0000 -78.0000 Du        
    897 ****       246.5000 355.0000 -77.7500 Du        
    898 ****       246.5000 355.0000 -77.5000 Du        
    899 ****       246.5000 355.0000 -77.2500 Du        
    900 ****       246.5000 355.2500 -78.2500 Du        
    901 ****       246.5000 355.2500 -78.0000 Du        
    902 ****       246.5000 355.2500 -77.7500 Du        
    903 ****       246.5000 355.2500 -77.5000 Du        
    904 ****       246.5000 355.2500 -77.2500 Du        
    905 ****       246.5000 355.5000 -78.2500 Du        
    906 ****       246.5000 355.5000 -78.0000 Du        
    907 ****       246.5000 355.5000 -77.7500 Du        
    908 ****       246.5000 355.5000 -77.5000 Du        
    909 ****       246.5000 355.7500 -78.2500 Du        
    910 ****       246.5000 355.7500 -78.0000 Du        
    911 ****       246.5000 355.7500 -77.7500 Du        
    912 ****       246.5000 355.7500 -77.5000 Du        
    913 ****       246.5000 356.0000 -78.0000 Du        
    914 ****       246.5000 356.0000 -77.7500 Du        
    915 ****       246.5000 356.0000 -77.5000 Du        
    916 ****       246.5000 356.2500 -78.0000 Du        
    917 ****       246.5000 356.2500 -77.7500 Du        
    918 ****       246.5000 356.5000 -78.0000 Du        
    919 ****       246.5000 356.5000 -77.7500 Du        
    920 ****       246.5000 356.7500 -78.0000 Du        
    921 ****       246.5000 356.7500 -77.7500 Du        
    922 ****       246.5000 357.0000 -78.0000 Du        
    923 ****       246.5000 357.0000 -77.7500 Du        
    924 ****       246.7500 353.7500 -79.2500 Du        
    925 ****       246.7500 353.7500 -79.0000 Du        
    926 ****       246.7500 354.0000 -79.2500 Du        
    927 ****       246.7500 354.0000 -79.0000 Du        
    928 ****       246.7500 354.0000 -78.7500 Du        
    929 ****       246.7500 354.0000 -78.5000 Du        
    930 ****       246.7500 354.2500 -79.0000 Du        
    931 ****       246.7500 354.2500 -78.7500 Du        
    932 ****       246.7500 354.2500 -78.5000 Du        
    933 ****       246.7500 354.2500 -78.2500 Du        
    934 ****       246.7500 354.2500 -78.0000 Du        
    935 ****       246.7500 354.5000 -78.5000 Du        
    936 ****       246.7500 354.5000 -78.2500 Du        
    937 ****       246.7500 354.5000 -78.0000 Du        
    938 ****       246.7500 354.5000 -77.7500 Du        
    939 ****       246.7500 354.7500 -78.5000 Du        
    940 ****       246.7500 354.7500 -78.2500 Du        
    941 ****       246.7500 354.7500 -78.0000 Du        
    942 ****       246.7500 354.7500 -77.7500 Du        
    943 ****       246.7500 354.7500 -77.5000 Du        
    944 ****       246.7500 355.0000 -78.2500 Du        
    945 ****       246.7500 355.0000 -78.0000 Du        
    946 ****       246.7500 355.0000 -77.7500 Du        
    947 ****       246.7500 355.0000 -77.5000 Du        
    948 ****       246.7500 355.0000 -77.2500 Du        
    949 ****       246.7500 355.2500 -78.2500 Du        
    950 ****       246.7500 355.2500 -78.0000 Du        
    951 ****       246.7500 355.2500 -77.7500 Du        
    952 ****       246.7500 355.2500 -77.5000 Du        
    953 ****       246.7500 355.2500 -77.2500 Du        
    954 ****       246.7500 355.5000 -78.2500 Du        
    955 ****       246.7500 355.5000 -78.0000 Du        
    956 ****       246.7500 355.5000 -77.7500 Du        
    957 ****       246.7500 355.5000 -77.5000 Du        
    958 ****       246.7500 355.5000 -77.2500 Du        
    959 ****       246.7500 355.7500 -78.2500 Du        
    960 ****       246.7500 355.7500 -78.0000 Du        
    961 ****       246.7500 355.7500 -77.7500 Du        
    962 ****       246.7500 355.7500 -77.5000 Du        
    963 ****       246.7500 355.7500 -77.2500 Du        
    964 ****       246.7500 356.0000 -78.0000 Du        
    965 ****       246.7500 356.0000 -77.7500 Du        
    966 ****       246.7500 356.0000 -77.5000 Du        
    967 ****       246.7500 356.0000 -77.2500 Du        
    968 ****       246.7500 356.0000 -77.0000 Du        
    969 ****       246.7500 356.2500 -78.0000 Du        
    970 ****       246.7500 356.2500 -77.7500 Du        
    971 ****       246.7500 356.2500 -77.5000 Du        
    972 ****       246.7500 356.2500 -77.2500 Du        
    973 ****       246.7500 356.5000 -78.0000 Du        
    974 ****       246.7500 356.5000 -77.7500 Du        
    975 ****       246.7500 356.5000 -77.5000 Du        
    976 ****       246.7500 356.5000 -77.2500 Du        
    977 ****       246.7500 356.7500 -78.0000 Du        
    978 ****       246.7500 356.7500 -77.7500 Du        
    979 ****       246.7500 356.7500 -77.5000 Du        
    980 ****       246.7500 356.7500 -77.2500 Du        
    981 ****       246.7500 357.0000 -78.0000 Du        
    982 ****       246.7500 357.0000 -77.7500 Du        
    983 ****       246.7500 357.0000 -77.5000 Du        
    984 ****       246.7500 357.0000 -77.2500 Du        
    985 ****       246.7500 357.2500 -78.0000 Du        
    986 ****       246.7500 357.2500 -77.7500 Du        
    987 ****       246.7500 357.5000 -78.0000 Du        
    988 ****       246.7500 357.5000 -77.7500 Du        
    989 ****       246.7500 357.7500 -78.0000 Du        
    990 ****       246.7500 357.7500 -77.7500 Du        
    991 ****       247.0000 353.7500 -79.2500 Du        
    992 ****       247.0000 353.7500 -79.0000 Du        
    993 ****       247.0000 354.0000 -79.0000 Du        
    994 ****       247.0000 354.2500 -78.5000 Du        
    995 ****       247.0000 354.5000 -78.5000 Du        
    996 ****       247.0000 354.5000 -78.2500 Du        
    997 ****       247.0000 354.7500 -78.2500 Du        
    998 ****       247.0000 354.7500 -78.0000 Du        
    999 ****       247.0000 355.0000 -78.2500 Du        
   1000 ****       247.0000 355.0000 -78.0000 Du        
   1001 ****       247.0000 355.0000 -77.7500 Du        
   1002 ****       247.0000 355.0000 -77.5000 Du        
   1003 ****       247.0000 355.2500 -78.0000 Du        
   1004 ****       247.0000 355.2500 -77.7500 Du        
   1005 ****       247.0000 355.2500 -77.5000 Du        
   1006 ****       247.0000 355.2500 -77.2500 Du        
   1007 ****       247.0000 355.5000 -78.0000 Du        
   1008 ****       247.0000 355.5000 -77.7500 Du        
   1009 ****       247.0000 355.5000 -77.5000 Du        
   1010 ****       247.0000 355.7500 -78.0000 Du        
   1011 ****       247.0000 355.7500 -77.7500 Du        
   1012 ****       247.0000 355.7500 -77.5000 Du        
   1013 ****       247.0000 355.7500 -77.2500 Du        
   1014 ****       247.0000 356.0000 -78.0000 Du        
   1015 ****       247.0000 356.0000 -77.7500 Du        
   1016 ****       247.0000 356.0000 -77.5000 Du        
   1017 ****       247.0000 356.0000 -77.2500 Du        
   1018 ****       247.0000 356.2500 -77.7500 Du        
   1019 ****       247.0000 356.2500 -77.5000 Du        
   1020 ****       247.0000 356.2500 -77.2500 Du        
   1021 ****       247.0000 356.2500 -77.0000 Du        
   1022 ****       247.0000 356.5000 -77.7500 Du        
   1023 ****       247.0000 356.5000 -77.5000 Du        
   1024 ****       247.0000 356.5000 -77.2500 Du        
   1025 ****       247.0000 356.5000 -77.0000 Du        
   1026 ****       247.0000 356.7500 -77.7500 Du        
   1027 ****       247.0000 356.7500 -77.5000 Du        
   1028 ****       247.0000 356.7500 -77.2500 Du        
   1029 ****       247.0000 356.7500 -77.0000 Du        
   1030 ****       247.0000 357.0000 -78.0000 Du        
   1031 ****       247.0000 357.0000 -77.7500 Du        
   1032 ****       247.0000 357.0000 -77.5000 Du        
   1033 ****       247.0000 357.0000 -77.2500 Du        
   1034 ****       247.0000 357.0000 -77.0000 Du        
   1035 ****       247.0000 357.0000 -76.7500 Du        
   1036 ****       247.0000 357.2500 -78.0000 Du        
   1037 ****       247.0000 357.2500 -77.7500 Du        
   1038 ****       247.0000 357.2500 -77.5000 Du        
   1039 ****       247.0000 357.2500 -77.2500 Du        
   1040 ****       247.0000 357.2500 -77.0000 Du        
   1041 ****       247.0000 357.2500 -76.7500 Du        
   1042 ****       247.0000 357.5000 -78.0000 Du        
   1043 ****       247.0000 357.5000 -77.7500 Du        
   1044 ****       247.0000 357.7500 -78.0000 Du        
   1045 ****       247.0000 357.7500 -77.7500 Du        
   1046 ****       247.2500 356.5000 -77.5000 Du        
   1047 ****       247.2500 356.5000 -77.2500 Du        
   1048 ****       247.2500 356.7500 -77.5000 Du        
   1049 ****       247.2500 356.7500 -77.2500 Du        
   1050 ****       247.2500 356.7500 -77.0000 Du        
   1051 ****       247.2500 357.0000 -77.5000 Du        
   1052 ****       247.2500 357.0000 -77.2500 Du        
   1053 ****       247.2500 357.0000 -77.0000 Du        
   1054 ****       247.2500 357.0000 -76.7500 Du        
   1055 ****       247.2500 357.2500 -77.7500 Du        
   1056 ****       247.2500 357.2500 -77.2500 Du        
   1057 ****       247.2500 357.2500 -77.0000 Du        
   1058 ****       247.2500 357.2500 -76.7500 Du        
   1059 ****       247.2500 357.2500 -76.2500 Du        
   1060 ****       247.2500 357.2500 -76.0000 Du        
   1061 ****       247.2500 357.5000 -75.2500 Du        
   1062 ****       247.2500 357.7500 -77.7500 Du        
   1063 ****       247.2500 357.7500 -75.5000 Du        
   1064 ****       247.2500 357.7500 -75.2500 Du        
   1065 ****       247.2500 357.7500 -75.0000 Du        
   1066 ****       247.2500 357.7500 -74.7500 Du        
   1067 ****       247.5000 353.2500 -79.7500 Du        
   1068 ****       247.5000 356.7500 -77.0000 Du        
   1069 ****       247.5000 357.0000 -77.0000 Du        
   1070 ****       247.5000 357.0000 -76.7500 Du        
   1071 ****       247.5000 357.0000 -76.5000 Du        
   1072 ****       247.5000 357.0000 -76.2500 Du        
   1073 ****       247.5000 357.2500 -77.0000 Du        
   1074 ****       247.5000 357.2500 -76.7500 Du        
   1075 ****       247.5000 357.2500 -76.5000 Du        
   1076 ****       247.5000 357.2500 -76.2500 Du        
   1077 ****       247.5000 357.2500 -76.0000 Du        
   1078 ****       247.5000 357.2500 -75.7500 Du        
   1079 ****       247.5000 357.2500 -75.5000 Du        
   1080 ****       247.5000 357.2500 -75.2500 Du        
   1081 ****       247.5000 357.5000 -76.7500 Du        
   1082 ****       247.5000 357.5000 -76.2500 Du        
   1083 ****       247.5000 357.5000 -76.0000 Du        
   1084 ****       247.5000 357.5000 -75.7500 Du        
   1085 ****       247.5000 357.5000 -75.5000 Du        
   1086 ****       247.5000 357.5000 -75.2500 Du        
   1087 ****       247.5000 357.5000 -75.0000 Du        
   1088 ****       247.5000 357.5000 -74.7500 Du        
   1089 ****       247.5000 357.7500 -76.0000 Du        
   1090 ****       247.5000 357.7500 -75.7500 Du        
   1091 ****       247.5000 357.7500 -75.5000 Du        
   1092 ****       247.5000 357.7500 -75.2500 Du        
   1093 ****       247.5000 357.7500 -75.0000 Du        
   1094 ****       247.5000 357.7500 -74.7500 Du        
   1095 ****       247.7500 352.7500 -82.5000 Du        
   1096 ****       247.7500 352.7500 -82.2500 Du        
   1097 ****       247.7500 353.2500 -80.0000 Du        
   1098 ****       247.7500 357.2500 -76.7500 Du        
   1099 ****       247.7500 357.2500 -76.2500 Du        
   1100 ****       247.7500 357.2500 -76.0000 Du        
   1101 ****       247.7500 357.2500 -75.7500 Du        
   1102 ****       247.7500 357.2500 -75.5000 Du        
   1103 ****       247.7500 357.2500 -75.2500 Du        
   1104 ****       247.7500 357.5000 -76.2500 Du        
   1105 ****       247.7500 357.5000 -76.0000 Du        
   1106 ****       247.7500 357.5000 -75.7500 Du        
   1107 ****       247.7500 357.5000 -75.5000 Du        
   1108 ****       247.7500 357.5000 -75.2500 Du        
   1109 ****       247.7500 357.5000 -75.0000 Du        
   1110 ****       247.7500 357.5000 -74.7500 Du        
   1111 ****       247.7500 357.7500 -76.2500 Du        
   1112 ****       247.7500 357.7500 -76.0000 Du        
   1113 ****       247.7500 357.7500 -75.7500 Du        
   1114 ****       247.7500 357.7500 -75.5000 Du        
   1115 ****       247.7500 357.7500 -75.2500 Du        
   1116 ****       247.7500 357.7500 -75.0000 Du        
   1117 ****       247.7500 357.7500 -74.7500 Du        
   1118 ****       248.0000 352.5000 -82.5000 Du        
   1119 ****       248.0000 352.5000 -82.2500 Du        
   1120 ****       248.0000 352.5000 -82.0000 Du        
   1121 ****       248.0000 352.7500 -82.5000 Du        
   1122 ****       248.0000 352.7500 -82.2500 Du        
   1123 ****       248.0000 352.7500 -82.0000 Du        
   1124 ****       248.0000 352.7500 -81.7500 Du        
   1125 ****       248.0000 353.0000 -82.0000 Du        
   1126 ****       248.0000 353.0000 -81.2500 Du        
   1127 ****       248.0000 353.0000 -81.0000 Du        
   1128 ****       248.0000 353.0000 -80.7500 Du        
   1129 ****       248.0000 353.0000 -80.2500 Du        
   1130 ****       248.0000 353.0000 -80.0000 Du        
   1131 ****       248.0000 353.2500 -80.2500 Du        
   1132 ****       248.0000 353.2500 -80.0000 Du        
   1133 ****       248.0000 357.2500 -76.0000 Du        
   1134 ****       248.0000 357.2500 -75.7500 Du        
   1135 ****       248.0000 357.2500 -75.5000 Du        
   1136 ****       248.0000 357.5000 -76.0000 Du        
   1137 ****       248.0000 357.5000 -75.7500 Du        
   1138 ****       248.0000 357.5000 -75.5000 Du        
   1139 ****       248.0000 357.5000 -75.2500 Du        
   1140 ****       248.0000 357.5000 -75.0000 Du        
   1141 ****       248.0000 357.5000 -74.7500 Du        
   1142 ****       248.0000 357.7500 -76.0000 Du        
   1143 ****       248.0000 357.7500 -75.7500 Du        
   1144 ****       248.0000 357.7500 -75.5000 Du        
   1145 ****       248.0000 357.7500 -75.2500 Du        
   1146 ****       248.0000 357.7500 -75.0000 Du        
   1147 ****       248.0000 357.7500 -74.7500 Du        
   1148 ****       248.2500 352.2500 -82.5000 Du        
   1149 ****       248.2500 352.2500 -82.2500 Du        
   1150 ****       248.2500 352.2500 -82.0000 Du        
   1151 ****       248.2500 352.5000 -82.5000 Du        
   1152 ****       248.2500 352.5000 -82.2500 Du        
   1153 ****       248.2500 352.5000 -82.0000 Du        
   1154 ****       248.2500 352.5000 -81.7500 Du        
   1155 ****       248.2500 352.5000 -81.5000 Du        
   1156 ****       248.2500 352.7500 -82.7500 Du        
   1157 ****       248.2500 352.7500 -82.5000 Du        
   1158 ****       248.2500 352.7500 -82.2500 Du        
   1159 ****       248.2500 352.7500 -82.0000 Du        
   1160 ****       248.2500 352.7500 -81.7500 Du        
   1161 ****       248.2500 352.7500 -81.5000 Du        
   1162 ****       248.2500 352.7500 -81.2500 Du        
   1163 ****       248.2500 352.7500 -81.0000 Du        
   1164 ****       248.2500 352.7500 -80.7500 Du        
   1165 ****       248.2500 352.7500 -80.5000 Du        
   1166 ****       248.2500 352.7500 -80.2500 Du        
   1167 ****       248.2500 353.0000 -82.5000 Du        
   1168 ****       248.2500 353.0000 -82.2500 Du        
   1169 ****       248.2500 353.0000 -82.0000 Du        
   1170 ****       248.2500 353.0000 -81.7500 Du        
   1171 ****       248.2500 353.0000 -81.5000 Du        
   1172 ****       248.2500 353.0000 -81.2500 Du        
   1173 ****       248.2500 353.0000 -81.0000 Du        
   1174 ****       248.2500 353.0000 -80.7500 Du        
   1175 ****       248.2500 353.0000 -80.5000 Du        
   1176 ****       248.2500 353.0000 -80.2500 Du        
   1177 ****       248.2500 353.0000 -80.0000 Du        
   1178 ****       248.2500 353.2500 -81.0000 Du        
   1179 ****       248.2500 353.2500 -80.7500 Du        
   1180 ****       248.2500 353.2500 -80.5000 Du        
   1181 ****       248.2500 353.2500 -80.2500 Du        
   1182 ****       248.2500 353.2500 -80.0000 Du        
   1183 ****       248.2500 357.5000 -75.7500 Du        
   1184 ****       248.2500 357.5000 -75.5000 Du        
   1185 ****       248.2500 357.5000 -75.2500 Du        
   1186 ****       248.2500 357.5000 -75.0000 Du        
   1187 ****       248.2500 357.5000 -74.7500 Du        
   1188 ****       248.2500 357.7500 -75.7500 Du        
   1189 ****       248.2500 357.7500 -75.5000 Du        
   1190 ****       248.2500 357.7500 -75.2500 Du        
   1191 ****       248.2500 357.7500 -75.0000 Du        
   1192 ****       248.2500 357.7500 -74.7500 Du        
   1193 ****       248.5000 352.0000 -82.5000 Du        
   1194 ****       248.5000 352.0000 -82.2500 Du        
   1195 ****       248.5000 352.0000 -82.0000 Du        
   1196 ****       248.5000 352.0000 -81.7500 Du        
   1197 ****       248.5000 352.2500 -82.5000 Du        
   1198 ****       248.5000 352.2500 -82.2500 Du        
   1199 ****       248.5000 352.2500 -82.0000 Du        
   1200 ****       248.5000 352.2500 -81.7500 Du        
   1201 ****       248.5000 352.2500 -81.5000 Du        
   1202 ****       248.5000 352.2500 -81.2500 Du        
   1203 ****       248.5000 352.2500 -81.0000 Du        
   1204 ****       248.5000 352.5000 -82.5000 Du        
   1205 ****       248.5000 352.5000 -82.2500 Du        
   1206 ****       248.5000 352.5000 -82.0000 Du        
   1207 ****       248.5000 352.5000 -81.7500 Du        
   1208 ****       248.5000 352.5000 -81.5000 Du        
   1209 ****       248.5000 352.5000 -81.2500 Du        
   1210 ****       248.5000 352.5000 -81.0000 Du        
   1211 ****       248.5000 352.5000 -80.7500 Du        
   1212 ****       248.5000 352.5000 -80.5000 Du        
   1213 ****       248.5000 352.5000 -80.2500 Du        
   1214 ****       248.5000 352.5000 -80.0000 Du        
   1215 ****       248.5000 352.7500 -82.7500 Du        
   1216 ****       248.5000 352.7500 -82.5000 Du        
   1217 ****       248.5000 352.7500 -82.2500 Du        
   1218 ****       248.5000 352.7500 -82.0000 Du        
   1219 ****       248.5000 352.7500 -81.7500 Du        
   1220 ****       248.5000 352.7500 -81.5000 Du        
   1221 ****       248.5000 352.7500 -81.2500 Du        
   1222 ****       248.5000 352.7500 -81.0000 Du        
   1223 ****       248.5000 352.7500 -80.7500 Du        
   1224 ****       248.5000 352.7500 -80.5000 Du        
   1225 ****       248.5000 352.7500 -80.2500 Du        
   1226 ****       248.5000 352.7500 -80.0000 Du        
   1227 ****       248.5000 353.0000 -82.7500 Du        
   1228 ****       248.5000 353.0000 -82.5000 Du        
   1229 ****       248.5000 353.0000 -82.2500 Du        
   1230 ****       248.5000 353.0000 -82.0000 Du        
   1231 ****       248.5000 353.0000 -81.7500 Du        
   1232 ****       248.5000 353.0000 -81.5000 Du        
   1233 ****       248.5000 353.0000 -81.2500 Du        
   1234 ****       248.5000 353.0000 -81.0000 Du        
   1235 ****       248.5000 353.0000 -80.7500 Du        
   1236 ****       248.5000 353.0000 -80.5000 Du        
   1237 ****       248.5000 353.0000 -80.2500 Du        
   1238 ****       248.5000 353.0000 -80.0000 Du        
   1239 ****       248.5000 353.2500 -81.5000 Du        
   1240 ****       248.5000 353.2500 -81.2500 Du        
   1241 ****       248.5000 353.2500 -81.0000 Du        
   1242 ****       248.5000 353.2500 -80.7500 Du        
   1243 ****       248.5000 353.2500 -80.5000 Du        
   1244 ****       248.5000 353.2500 -80.2500 Du        
   1245 ****       248.5000 357.5000 -75.5000 Du        
   1246 ****       248.5000 357.5000 -75.2500 Du        
   1247 ****       248.5000 357.5000 -75.0000 Du        
   1248 ****       248.5000 357.7500 -75.5000 Du        
   1249 ****       248.5000 357.7500 -75.2500 Du        
   1250 ****       248.5000 357.7500 -75.0000 Du        
   1251 ****       248.5000 357.7500 -74.7500 Du        
   1252 ****       248.7500 351.2500 -82.2500 Du        
   1253 ****       248.7500 351.5000 -82.5000 Du        
   1254 ****       248.7500 351.5000 -82.2500 Du        
   1255 ****       248.7500 351.5000 -82.0000 Du        
   1256 ****       248.7500 351.5000 -81.7500 Du        
   1257 ****       248.7500 351.7500 -82.5000 Du        
   1258 ****       248.7500 351.7500 -82.2500 Du        
   1259 ****       248.7500 351.7500 -82.0000 Du        
   1260 ****       248.7500 351.7500 -81.7500 Du        
   1261 ****       248.7500 351.7500 -81.5000 Du        
   1262 ****       248.7500 352.0000 -82.5000 Du        
   1263 ****       248.7500 352.0000 -82.2500 Du        
   1264 ****       248.7500 352.0000 -82.0000 Du        
   1265 ****       248.7500 352.0000 -81.7500 Du        
   1266 ****       248.7500 352.0000 -81.5000 Du        
   1267 ****       248.7500 352.0000 -81.2500 Du        
   1268 ****       248.7500 352.0000 -81.0000 Du        
   1269 ****       248.7500 352.0000 -80.7500 Du        
   1270 ****       248.7500 352.0000 -80.5000 Du        
   1271 ****       248.7500 352.0000 -80.2500 Du        
   1272 ****       248.7500 352.0000 -80.0000 Du        
   1273 ****       248.7500 352.2500 -82.5000 Du        
   1274 ****       248.7500 352.2500 -82.2500 Du        
   1275 ****       248.7500 352.2500 -82.0000 Du        
   1276 ****       248.7500 352.2500 -81.7500 Du        
   1277 ****       248.7500 352.2500 -81.5000 Du        
   1278 ****       248.7500 352.2500 -81.2500 Du        
   1279 ****       248.7500 352.2500 -81.0000 Du        
   1280 ****       248.7500 352.2500 -80.7500 Du        
   1281 ****       248.7500 352.2500 -80.5000 Du        
   1282 ****       248.7500 352.2500 -80.2500 Du        
   1283 ****       248.7500 352.2500 -80.0000 Du        
   1284 ****       248.7500 352.5000 -82.5000 Du        
   1285 ****       248.7500 352.5000 -82.2500 Du        
   1286 ****       248.7500 352.5000 -82.0000 Du        
   1287 ****       248.7500 352.5000 -81.7500 Du        
   1288 ****       248.7500 352.5000 -81.5000 Du        
   1289 ****       248.7500 352.5000 -81.2500 Du        
   1290 ****       248.7500 352.5000 -81.0000 Du        
   1291 ****       248.7500 352.5000 -80.7500 Du        
   1292 ****       248.7500 352.5000 -80.5000 Du        
   1293 ****       248.7500 352.5000 -80.2500 Du        
   1294 ****       248.7500 352.5000 -80.0000 Du        
   1295 ****       248.7500 352.7500 -82.7500 Du        
   1296 ****       248.7500 352.7500 -82.5000 Du        
   1297 ****       248.7500 352.7500 -82.2500 Du        
   1298 ****       248.7500 352.7500 -82.0000 Du        
   1299 ****       248.7500 352.7500 -81.7500 Du        
   1300 ****       248.7500 352.7500 -81.5000 Du        
   1301 ****       248.7500 352.7500 -81.2500 Du        
   1302 ****       248.7500 352.7500 -81.0000 Du        
   1303 ****       248.7500 352.7500 -80.7500 Du        
   1304 ****       248.7500 352.7500 -80.5000 Du        
   1305 ****       248.7500 352.7500 -80.2500 Du        
   1306 ****       248.7500 352.7500 -80.0000 Du        
   1307 ****       248.7500 353.0000 -82.7500 Du        
   1308 ****       248.7500 353.0000 -82.5000 Du        
   1309 ****       248.7500 353.0000 -82.2500 Du        
   1310 ****       248.7500 353.0000 -82.0000 Du        
   1311 ****       248.7500 353.0000 -81.7500 Du        
   1312 ****       248.7500 353.0000 -81.5000 Du        
   1313 ****       248.7500 353.0000 -81.2500 Du        
   1314 ****       248.7500 353.0000 -81.0000 Du        
   1315 ****       248.7500 353.0000 -80.7500 Du        
   1316 ****       248.7500 353.0000 -80.5000 Du        
   1317 ****       248.7500 353.0000 -80.2500 Du        
   1318 ****       248.7500 353.2500 -82.7500 Du        
   1319 ****       248.7500 353.2500 -82.2500 Du        
   1320 ****       248.7500 353.2500 -82.0000 Du        
   1321 ****       248.7500 353.2500 -81.7500 Du        
   1322 ****       248.7500 353.2500 -81.5000 Du        
   1323 ****       248.7500 353.2500 -81.2500 Du        
   1324 ****       248.7500 353.2500 -81.0000 Du        
   1325 ****       248.7500 353.2500 -80.7500 Du        
   1326 ****       248.7500 353.2500 -80.5000 Du        
   1327 ****       248.7500 353.2500 -80.2500 Du        
   1328 ****       248.7500 357.5000 -75.2500 Du        
   1329 ****       248.7500 357.7500 -75.5000 Du        
   1330 ****       248.7500 357.7500 -75.2500 Du        
   1331 ****       248.7500 357.7500 -75.0000 Du        
   1332 ****       248.7500 357.7500 -74.7500 Du        
   1333 ****       249.0000 350.7500 -82.5000 Du        
   1334 ****       249.0000 350.7500 -82.2500 Du        
   1335 ****       249.0000 350.7500 -82.0000 Du        
   1336 ****       249.0000 350.7500 -81.7500 Du        
   1337 ****       249.0000 351.0000 -82.5000 Du        
   1338 ****       249.0000 351.0000 -82.2500 Du        
   1339 ****       249.0000 351.0000 -82.0000 Du        
   1340 ****       249.0000 351.0000 -81.7500 Du        
   1341 ****       249.0000 351.0000 -81.5000 Du        
   1342 ****       249.0000 351.2500 -82.7500 Du        
   1343 ****       249.0000 351.2500 -82.5000 Du        
   1344 ****       249.0000 351.2500 -82.2500 Du        
   1345 ****       249.0000 351.2500 -82.0000 Du        
   1346 ****       249.0000 351.2500 -81.7500 Du        
   1347 ****       249.0000 351.2500 -81.5000 Du        
   1348 ****       249.0000 351.2500 -81.2500 Du        
   1349 ****       249.0000 351.2500 -81.0000 Du        
   1350 ****       249.0000 351.2500 -80.7500 Du        
   1351 ****       249.0000 351.2500 -80.5000 Du        
   1352 ****       249.0000 351.2500 -80.2500 Du        
   1353 ****       249.0000 351.2500 -80.0000 Du        
   1354 ****       249.0000 351.2500 -79.7500 Du        
   1355 ****       249.0000 351.5000 -82.5000 Du        
   1356 ****       249.0000 351.5000 -82.2500 Du        
   1357 ****       249.0000 351.5000 -82.0000 Du        
   1358 ****       249.0000 351.5000 -81.7500 Du        
   1359 ****       249.0000 351.5000 -81.5000 Du        
   1360 ****       249.0000 351.5000 -81.2500 Du        
   1361 ****       249.0000 351.5000 -81.0000 Du        
   1362 ****       249.0000 351.5000 -80.7500 Du        
   1363 ****       249.0000 351.5000 -80.5000 Du        
   1364 ****       249.0000 351.5000 -80.2500 Du        
   1365 ****       249.0000 351.5000 -80.0000 Du        
   1366 ****       249.0000 351.5000 -79.7500 Du        
   1367 ****       249.0000 351.7500 -82.5000 Du        
   1368 ****       249.0000 351.7500 -82.2500 Du        
   1369 ****       249.0000 351.7500 -82.0000 Du        
   1370 ****       249.0000 351.7500 -81.7500 Du        
   1371 ****       249.0000 351.7500 -81.5000 Du        
   1372 ****       249.0000 351.7500 -81.2500 Du        
   1373 ****       249.0000 351.7500 -81.0000 Du        
   1374 ****       249.0000 351.7500 -80.7500 Du        
   1375 ****       249.0000 351.7500 -80.5000 Du        
   1376 ****       249.0000 351.7500 -80.2500 Du        
   1377 ****       249.0000 351.7500 -80.0000 Du        
   1378 ****       249.0000 351.7500 -79.7500 Du        
   1379 ****       249.0000 352.0000 -82.5000 Du        
   1380 ****       249.0000 352.0000 -82.2500 Du        
   1381 ****       249.0000 352.0000 -82.0000 Du        
   1382 ****       249.0000 352.0000 -81.7500 Du        
   1383 ****       249.0000 352.0000 -81.5000 Du        
   1384 ****       249.0000 352.0000 -81.2500 Du        
   1385 ****       249.0000 352.0000 -81.0000 Du        
   1386 ****       249.0000 352.0000 -80.7500 Du        
   1387 ****       249.0000 352.0000 -80.5000 Du        
   1388 ****       249.0000 352.0000 -80.2500 Du        
   1389 ****       249.0000 352.0000 -80.0000 Du        
   1390 ****       249.0000 352.0000 -79.7500 Du        
   1391 ****       249.0000 352.2500 -82.5000 Du        
   1392 ****       249.0000 352.2500 -82.2500 Du        
   1393 ****       249.0000 352.2500 -82.0000 Du        
   1394 ****       249.0000 352.2500 -81.7500 Du        
   1395 ****       249.0000 352.2500 -81.5000 Du        
   1396 ****       249.0000 352.2500 -81.2500 Du        
   1397 ****       249.0000 352.2500 -81.0000 Du        
   1398 ****       249.0000 352.2500 -80.7500 Du        
   1399 ****       249.0000 352.2500 -80.5000 Du        
   1400 ****       249.0000 352.2500 -80.2500 Du        
   1401 ****       249.0000 352.2500 -80.0000 Du        
   1402 ****       249.0000 352.5000 -82.7500 Du        
   1403 ****       249.0000 352.5000 -82.5000 Du        
   1404 ****       249.0000 352.5000 -82.2500 Du        
   1405 ****       249.0000 352.5000 -82.0000 Du        
   1406 ****       249.0000 352.5000 -81.7500 Du        
   1407 ****       249.0000 352.5000 -81.5000 Du        
   1408 ****       249.0000 352.5000 -81.2500 Du        
   1409 ****       249.0000 352.5000 -81.0000 Du        
   1410 ****       249.0000 352.5000 -80.7500 Du        
   1411 ****       249.0000 352.5000 -80.5000 Du        
   1412 ****       249.0000 352.5000 -80.2500 Du        
   1413 ****       249.0000 352.5000 -80.0000 Du        
   1414 ****       249.0000 352.7500 -82.7500 Du        
   1415 ****       249.0000 352.7500 -82.5000 Du        
   1416 ****       249.0000 352.7500 -82.2500 Du        
   1417 ****       249.0000 352.7500 -82.0000 Du        
   1418 ****       249.0000 352.7500 -81.7500 Du        
   1419 ****       249.0000 352.7500 -81.5000 Du        
   1420 ****       249.0000 352.7500 -81.2500 Du        
   1421 ****       249.0000 352.7500 -81.0000 Du        
   1422 ****       249.0000 352.7500 -80.7500 Du        
   1423 ****       249.0000 352.7500 -80.5000 Du        
   1424 ****       249.0000 352.7500 -80.2500 Du        
   1425 ****       249.0000 353.0000 -82.7500 Du        
   1426 ****       249.0000 353.0000 -82.5000 Du        
   1427 ****       249.0000 353.0000 -82.2500 Du        
   1428 ****       249.0000 353.0000 -82.0000 Du        
   1429 ****       249.0000 353.0000 -81.7500 Du        
   1430 ****       249.0000 353.0000 -81.5000 Du        
   1431 ****       249.0000 353.0000 -81.2500 Du        
   1432 ****       249.0000 353.0000 -81.0000 Du        
   1433 ****       249.0000 353.0000 -80.7500 Du        
   1434 ****       249.0000 353.0000 -80.5000 Du        
   1435 ****       249.0000 353.0000 -80.2500 Du        
   1436 ****       249.0000 353.2500 -82.7500 Du        
   1437 ****       249.0000 353.2500 -82.5000 Du        
   1438 ****       249.0000 353.2500 -82.2500 Du        
   1439 ****       249.0000 353.2500 -82.0000 Du        
   1440 ****       249.0000 353.2500 -81.7500 Du        
   1441 ****       249.0000 353.2500 -81.5000 Du        
   1442 ****       249.0000 353.2500 -81.2500 Du        
   1443 ****       249.0000 353.2500 -81.0000 Du        
   1444 ****       249.0000 353.2500 -80.7500 Du        
   1445 ****       249.0000 353.2500 -80.5000 Du        
   1446 ****       249.0000 357.7500 -75.2500 Du        
   1447 ****       249.0000 357.7500 -75.0000 Du        
   1448 ****       249.0000 357.7500 -74.7500 Du        
   1449 ****       249.2500 349.2500 -81.5000 Du        
   1450 ****       249.2500 349.2500 -81.2500 Du        
   1451 ****       249.2500 349.5000 -81.7500 Du        
   1452 ****       249.2500 349.5000 -81.5000 Du        
   1453 ****       249.2500 349.5000 -81.2500 Du        
   1454 ****       249.2500 349.7500 -82.0000 Du        
   1455 ****       249.2500 349.7500 -81.7500 Du        
   1456 ****       249.2500 349.7500 -81.5000 Du        
   1457 ****       249.2500 349.7500 -81.2500 Du        
   1458 ****       249.2500 349.7500 -81.0000 Du        
   1459 ****       249.2500 350.0000 -82.0000 Du        
   1460 ****       249.2500 350.0000 -81.7500 Du        
   1461 ****       249.2500 350.0000 -81.5000 Du        
   1462 ****       249.2500 350.0000 -81.2500 Du        
   1463 ****       249.2500 350.0000 -81.0000 Du        
   1464 ****       249.2500 350.2500 -82.2500 Du        
   1465 ****       249.2500 350.2500 -82.0000 Du        
   1466 ****       249.2500 350.2500 -81.7500 Du        
   1467 ****       249.2500 350.2500 -81.5000 Du        
   1468 ****       249.2500 350.2500 -81.2500 Du        
   1469 ****       249.2500 350.2500 -81.0000 Du        
   1470 ****       249.2500 350.2500 -80.7500 Du        
   1471 ****       249.2500 350.5000 -82.5000 Du        
   1472 ****       249.2500 350.5000 -82.2500 Du        
   1473 ****       249.2500 350.5000 -82.0000 Du        
   1474 ****       249.2500 350.5000 -81.7500 Du        
   1475 ****       249.2500 350.5000 -81.5000 Du        
   1476 ****       249.2500 350.5000 -81.2500 Du        
   1477 ****       249.2500 350.5000 -81.0000 Du        
   1478 ****       249.2500 350.5000 -80.7500 Du        
   1479 ****       249.2500 350.7500 -82.7500 Du        
   1480 ****       249.2500 350.7500 -82.5000 Du        
   1481 ****       249.2500 350.7500 -82.2500 Du        
   1482 ****       249.2500 350.7500 -82.0000 Du        
   1483 ****       249.2500 350.7500 -81.7500 Du        
   1484 ****       249.2500 350.7500 -81.5000 Du        
   1485 ****       249.2500 350.7500 -81.2500 Du        
   1486 ****       249.2500 350.7500 -81.0000 Du        
   1487 ****       249.2500 350.7500 -80.7500 Du        
   1488 ****       249.2500 350.7500 -80.5000 Du        
   1489 ****       249.2500 351.0000 -82.7500 Du        
   1490 ****       249.2500 351.0000 -82.5000 Du        
   1491 ****       249.2500 351.0000 -82.2500 Du        
   1492 ****       249.2500 351.0000 -82.0000 Du        
   1493 ****       249.2500 351.0000 -81.7500 Du        
   1494 ****       249.2500 351.0000 -81.5000 Du        
   1495 ****       249.2500 351.0000 -81.2500 Du        
   1496 ****       249.2500 351.0000 -81.0000 Du        
   1497 ****       249.2500 351.0000 -80.7500 Du        
   1498 ****       249.2500 351.0000 -80.5000 Du        
   1499 ****       249.2500 351.0000 -80.2500 Du        
   1500 ****       249.2500 351.0000 -80.0000 Du        
   1501 ****       249.2500 351.2500 -82.7500 Du        
   1502 ****       249.2500 351.2500 -82.5000 Du        
   1503 ****       249.2500 351.2500 -82.2500 Du        
   1504 ****       249.2500 351.2500 -82.0000 Du        
   1505 ****       249.2500 351.2500 -81.7500 Du        
   1506 ****       249.2500 351.2500 -81.5000 Du        
   1507 ****       249.2500 351.2500 -81.2500 Du        
   1508 ****       249.2500 351.2500 -81.0000 Du        
   1509 ****       249.2500 351.2500 -80.7500 Du        
   1510 ****       249.2500 351.2500 -80.5000 Du        
   1511 ****       249.2500 351.2500 -80.2500 Du        
   1512 ****       249.2500 351.2500 -80.0000 Du        
   1513 ****       249.2500 351.2500 -79.7500 Du        
   1514 ****       249.2500 351.5000 -82.7500 Du        
   1515 ****       249.2500 351.5000 -82.5000 Du        
   1516 ****       249.2500 351.5000 -82.2500 Du        
   1517 ****       249.2500 351.5000 -82.0000 Du        
   1518 ****       249.2500 351.5000 -81.7500 Du        
   1519 ****       249.2500 351.5000 -81.5000 Du        
   1520 ****       249.2500 351.5000 -81.2500 Du        
   1521 ****       249.2500 351.5000 -81.0000 Du        
   1522 ****       249.2500 351.5000 -80.7500 Du        
   1523 ****       249.2500 351.5000 -80.5000 Du        
   1524 ****       249.2500 351.5000 -80.2500 Du        
   1525 ****       249.2500 351.5000 -80.0000 Du        
   1526 ****       249.2500 351.5000 -79.7500 Du        
   1527 ****       249.2500 351.7500 -82.7500 Du        
   1528 ****       249.2500 351.7500 -82.5000 Du        
   1529 ****       249.2500 351.7500 -82.2500 Du        
   1530 ****       249.2500 351.7500 -82.0000 Du        
   1531 ****       249.2500 351.7500 -81.7500 Du        
   1532 ****       249.2500 351.7500 -81.5000 Du        
   1533 ****       249.2500 351.7500 -81.2500 Du        
   1534 ****       249.2500 351.7500 -81.0000 Du        
   1535 ****       249.2500 351.7500 -80.7500 Du        
   1536 ****       249.2500 351.7500 -80.5000 Du        
   1537 ****       249.2500 351.7500 -80.2500 Du        
   1538 ****       249.2500 351.7500 -80.0000 Du        
   1539 ****       249.2500 351.7500 -79.7500 Du        
   1540 ****       249.2500 352.0000 -82.7500 Du        
   1541 ****       249.2500 352.0000 -82.5000 Du        
   1542 ****       249.2500 352.0000 -82.2500 Du        
   1543 ****       249.2500 352.0000 -82.0000 Du        
   1544 ****       249.2500 352.0000 -81.7500 Du        
   1545 ****       249.2500 352.0000 -81.5000 Du        
   1546 ****       249.2500 352.0000 -81.2500 Du        
   1547 ****       249.2500 352.0000 -81.0000 Du        
   1548 ****       249.2500 352.0000 -80.7500 Du        
   1549 ****       249.2500 352.0000 -80.5000 Du        
   1550 ****       249.2500 352.0000 -80.2500 Du        
   1551 ****       249.2500 352.0000 -80.0000 Du        
   1552 ****       249.2500 352.2500 -82.7500 Du        
   1553 ****       249.2500 352.2500 -82.5000 Du        
   1554 ****       249.2500 352.2500 -82.2500 Du        
   1555 ****       249.2500 352.2500 -82.0000 Du        
   1556 ****       249.2500 352.2500 -81.7500 Du        
   1557 ****       249.2500 352.2500 -81.5000 Du        
   1558 ****       249.2500 352.2500 -81.2500 Du        
   1559 ****       249.2500 352.2500 -81.0000 Du        
   1560 ****       249.2500 352.2500 -80.7500 Du        
   1561 ****       249.2500 352.2500 -80.5000 Du        
   1562 ****       249.2500 352.2500 -80.2500 Du        
   1563 ****       249.2500 352.2500 -80.0000 Du        
   1564 ****       249.2500 352.5000 -82.7500 Du        
   1565 ****       249.2500 352.5000 -82.5000 Du        
   1566 ****       249.2500 352.5000 -82.2500 Du        
   1567 ****       249.2500 352.5000 -82.0000 Du        
   1568 ****       249.2500 352.5000 -81.7500 Du        
   1569 ****       249.2500 352.5000 -81.5000 Du        
   1570 ****       249.2500 352.5000 -81.2500 Du        
   1571 ****       249.2500 352.5000 -81.0000 Du        
   1572 ****       249.2500 352.5000 -80.7500 Du        
   1573 ****       249.2500 352.5000 -80.5000 Du        
   1574 ****       249.2500 352.5000 -80.2500 Du        
   1575 ****       249.2500 352.7500 -82.7500 Du        
   1576 ****       249.2500 352.7500 -82.5000 Du        
   1577 ****       249.2500 352.7500 -82.2500 Du        
   1578 ****       249.2500 352.7500 -82.0000 Du        
   1579 ****       249.2500 352.7500 -81.7500 Du        
   1580 ****       249.2500 352.7500 -81.5000 Du        
   1581 ****       249.2500 352.7500 -81.2500 Du        
   1582 ****       249.2500 352.7500 -81.0000 Du        
   1583 ****       249.2500 352.7500 -80.7500 Du        
   1584 ****       249.2500 352.7500 -80.5000 Du        
   1585 ****       249.2500 352.7500 -80.2500 Du        
   1586 ****       249.2500 353.0000 -83.0000 Du        
   1587 ****       249.2500 353.0000 -82.7500 Du        
   1588 ****       249.2500 353.0000 -82.5000 Du        
   1589 ****       249.2500 353.0000 -82.2500 Du        
   1590 ****       249.2500 353.0000 -82.0000 Du        
   1591 ****       249.2500 353.0000 -81.7500 Du        
   1592 ****       249.2500 353.0000 -81.5000 Du        
   1593 ****       249.2500 353.0000 -81.2500 Du        
   1594 ****       249.2500 353.0000 -81.0000 Du        
   1595 ****       249.2500 353.0000 -80.7500 Du        
   1596 ****       249.2500 353.0000 -80.5000 Du        
   1597 ****       249.2500 353.2500 -83.0000 Du        
   1598 ****       249.2500 353.2500 -82.7500 Du        
   1599 ****       249.2500 353.2500 -82.5000 Du        
   1600 ****       249.2500 353.2500 -82.2500 Du        
   1601 ****       249.2500 353.2500 -82.0000 Du        
   1602 ****       249.2500 353.2500 -81.7500 Du        
   1603 ****       249.2500 353.2500 -81.5000 Du        
   1604 ****       249.2500 353.2500 -81.2500 Du        
   1605 ****       249.2500 353.2500 -81.0000 Du        
   1606 ****       249.2500 353.2500 -80.7500 Du        
   1607 ****       249.5000 349.2500 -81.5000 Du        
   1608 ****       249.5000 349.2500 -81.2500 Du        
   1609 ****       249.5000 349.5000 -81.7500 Du        
   1610 ****       249.5000 349.5000 -81.5000 Du        
   1611 ****       249.5000 349.5000 -81.2500 Du        
   1612 ****       249.5000 349.7500 -82.0000 Du        
   1613 ****       249.5000 349.7500 -81.7500 Du        
   1614 ****       249.5000 349.7500 -81.5000 Du        
   1615 ****       249.5000 349.7500 -81.2500 Du        
   1616 ****       249.5000 349.7500 -81.0000 Du        
   1617 ****       249.5000 350.0000 -82.2500 Du        
   1618 ****       249.5000 350.0000 -82.0000 Du        
   1619 ****       249.5000 350.0000 -81.7500 Du        
   1620 ****       249.5000 350.0000 -81.5000 Du        
   1621 ****       249.5000 350.0000 -81.2500 Du        
   1622 ****       249.5000 350.0000 -81.0000 Du        
   1623 ****       249.5000 350.2500 -82.5000 Du        
   1624 ****       249.5000 350.2500 -82.2500 Du        
   1625 ****       249.5000 350.2500 -82.0000 Du        
   1626 ****       249.5000 350.2500 -81.7500 Du        
   1627 ****       249.5000 350.2500 -81.5000 Du        
   1628 ****       249.5000 350.2500 -81.2500 Du        
   1629 ****       249.5000 350.2500 -81.0000 Du        
   1630 ****       249.5000 350.2500 -80.7500 Du        
   1631 ****       249.5000 350.5000 -82.7500 Du        
   1632 ****       249.5000 350.5000 -82.5000 Du        
   1633 ****       249.5000 350.5000 -82.2500 Du        
   1634 ****       249.5000 350.5000 -82.0000 Du        
   1635 ****       249.5000 350.5000 -81.7500 Du        
   1636 ****       249.5000 350.5000 -81.5000 Du        
   1637 ****       249.5000 350.5000 -81.2500 Du        
   1638 ****       249.5000 350.5000 -81.0000 Du        
   1639 ****       249.5000 350.5000 -80.7500 Du        
   1640 ****       249.5000 350.7500 -82.7500 Du        
   1641 ****       249.5000 350.7500 -82.5000 Du        
   1642 ****       249.5000 350.7500 -82.2500 Du        
   1643 ****       249.5000 350.7500 -82.0000 Du        
   1644 ****       249.5000 350.7500 -81.7500 Du        
   1645 ****       249.5000 350.7500 -81.5000 Du        
   1646 ****       249.5000 350.7500 -81.2500 Du        
   1647 ****       249.5000 350.7500 -81.0000 Du        
   1648 ****       249.5000 350.7500 -80.7500 Du        
   1649 ****       249.5000 350.7500 -80.5000 Du        
   1650 ****       249.5000 350.7500 -80.2500 Du        
   1651 ****       249.5000 351.0000 -82.7500 Du        
   1652 ****       249.5000 351.0000 -82.5000 Du        
   1653 ****       249.5000 351.0000 -82.2500 Du        
   1654 ****       249.5000 351.0000 -82.0000 Du        
   1655 ****       249.5000 351.0000 -81.7500 Du        
   1656 ****       249.5000 351.0000 -81.5000 Du        
   1657 ****       249.5000 351.0000 -81.2500 Du        
   1658 ****       249.5000 351.0000 -81.0000 Du        
   1659 ****       249.5000 351.0000 -80.7500 Du        
   1660 ****       249.5000 351.0000 -80.5000 Du        
   1661 ****       249.5000 351.0000 -80.2500 Du        
   1662 ****       249.5000 351.0000 -80.0000 Du        
   1663 ****       249.5000 351.2500 -82.7500 Du        
   1664 ****       249.5000 351.2500 -82.5000 Du        
   1665 ****       249.5000 351.2500 -82.2500 Du        
   1666 ****       249.5000 351.2500 -82.0000 Du        
   1667 ****       249.5000 351.2500 -81.7500 Du        
   1668 ****       249.5000 351.2500 -81.5000 Du        
   1669 ****       249.5000 351.2500 -81.2500 Du        
   1670 ****       249.5000 351.2500 -81.0000 Du        
   1671 ****       249.5000 351.2500 -80.7500 Du        
   1672 ****       249.5000 351.2500 -80.5000 Du        
   1673 ****       249.5000 351.2500 -80.2500 Du        
   1674 ****       249.5000 351.2500 -80.0000 Du        
   1675 ****       249.5000 351.2500 -79.7500 Du        
   1676 ****       249.5000 351.5000 -82.7500 Du        
   1677 ****       249.5000 351.5000 -82.5000 Du        
   1678 ****       249.5000 351.5000 -82.2500 Du        
   1679 ****       249.5000 351.5000 -82.0000 Du        
   1680 ****       249.5000 351.5000 -81.7500 Du        
   1681 ****       249.5000 351.5000 -81.5000 Du        
   1682 ****       249.5000 351.5000 -81.2500 Du        
   1683 ****       249.5000 351.5000 -81.0000 Du        
   1684 ****       249.5000 351.5000 -80.7500 Du        
   1685 ****       249.5000 351.5000 -80.5000 Du        
   1686 ****       249.5000 351.5000 -80.2500 Du        
   1687 ****       249.5000 351.5000 -80.0000 Du        
   1688 ****       249.5000 351.5000 -79.7500 Du        
   1689 ****       249.5000 351.7500 -82.7500 Du        
   1690 ****       249.5000 351.7500 -82.5000 Du        
   1691 ****       249.5000 351.7500 -82.2500 Du        
   1692 ****       249.5000 351.7500 -82.0000 Du        
   1693 ****       249.5000 351.7500 -81.7500 Du        
   1694 ****       249.5000 351.7500 -81.5000 Du        
   1695 ****       249.5000 351.7500 -81.2500 Du        
   1696 ****       249.5000 351.7500 -81.0000 Du        
   1697 ****       249.5000 351.7500 -80.7500 Du        
   1698 ****       249.5000 351.7500 -80.5000 Du        
   1699 ****       249.5000 351.7500 -80.2500 Du        
   1700 ****       249.5000 351.7500 -80.0000 Du        
   1701 ****       249.5000 351.7500 -79.7500 Du        
   1702 ****       249.5000 352.0000 -82.7500 Du        
   1703 ****       249.5000 352.0000 -82.5000 Du        
   1704 ****       249.5000 352.0000 -82.2500 Du        
   1705 ****       249.5000 352.0000 -82.0000 Du        
   1706 ****       249.5000 352.0000 -81.7500 Du        
   1707 ****       249.5000 352.0000 -81.5000 Du        
   1708 ****       249.5000 352.0000 -81.2500 Du        
   1709 ****       249.5000 352.0000 -81.0000 Du        
   1710 ****       249.5000 352.0000 -80.7500 Du        
   1711 ****       249.5000 352.0000 -80.5000 Du        
   1712 ****       249.5000 352.0000 -80.2500 Du        
   1713 ****       249.5000 352.0000 -80.0000 Du        
   1714 ****       249.5000 352.2500 -82.7500 Du        
   1715 ****       249.5000 352.2500 -82.5000 Du        
   1716 ****       249.5000 352.2500 -82.2500 Du        
   1717 ****       249.5000 352.2500 -82.0000 Du        
   1718 ****       249.5000 352.2500 -81.7500 Du        
   1719 ****       249.5000 352.2500 -81.5000 Du        
   1720 ****       249.5000 352.2500 -81.2500 Du        
   1721 ****       249.5000 352.2500 -81.0000 Du        
   1722 ****       249.5000 352.2500 -80.7500 Du        
   1723 ****       249.5000 352.2500 -80.5000 Du        
   1724 ****       249.5000 352.2500 -80.2500 Du        
   1725 ****       249.5000 352.2500 -80.0000 Du        
   1726 ****       249.5000 352.5000 -82.7500 Du        
   1727 ****       249.5000 352.5000 -82.5000 Du        
   1728 ****       249.5000 352.5000 -82.2500 Du        
   1729 ****       249.5000 352.5000 -82.0000 Du        
   1730 ****       249.5000 352.5000 -81.7500 Du        
   1731 ****       249.5000 352.5000 -81.5000 Du        
   1732 ****       249.5000 352.5000 -81.2500 Du        
   1733 ****       249.5000 352.5000 -81.0000 Du        
   1734 ****       249.5000 352.5000 -80.7500 Du        
   1735 ****       249.5000 352.5000 -80.5000 Du        
   1736 ****       249.5000 352.5000 -80.2500 Du        
   1737 ****       249.5000 352.7500 -82.7500 Du        
   1738 ****       249.5000 352.7500 -82.5000 Du        
   1739 ****       249.5000 352.7500 -82.2500 Du        
   1740 ****       249.5000 352.7500 -82.0000 Du        
   1741 ****       249.5000 352.7500 -81.7500 Du        
   1742 ****       249.5000 352.7500 -81.5000 Du        
   1743 ****       249.5000 352.7500 -81.2500 Du        
   1744 ****       249.5000 352.7500 -81.0000 Du        
   1745 ****       249.5000 352.7500 -80.7500 Du        
   1746 ****       249.5000 352.7500 -80.5000 Du        
   1747 ****       249.5000 352.7500 -80.2500 Du        
   1748 ****       249.5000 353.0000 -83.0000 Du        
   1749 ****       249.5000 353.0000 -82.7500 Du        
   1750 ****       249.5000 353.0000 -82.5000 Du        
   1751 ****       249.5000 353.0000 -82.2500 Du        
   1752 ****       249.5000 353.0000 -82.0000 Du        
   1753 ****       249.5000 353.0000 -81.7500 Du        
   1754 ****       249.5000 353.0000 -81.5000 Du        
   1755 ****       249.5000 353.0000 -81.2500 Du        
   1756 ****       249.5000 353.0000 -81.0000 Du        
   1757 ****       249.5000 353.0000 -80.7500 Du        
   1758 ****       249.5000 353.0000 -80.5000 Du        
   1759 ****       249.5000 353.2500 -83.0000 Du        
   1760 ****       249.5000 353.2500 -82.7500 Du        
   1761 ****       249.5000 353.2500 -82.5000 Du        
   1762 ****       249.5000 353.2500 -82.2500 Du        
   1763 ****       249.5000 353.2500 -82.0000 Du        
   1764 ****       249.5000 353.2500 -81.7500 Du        
   1765 ****       249.5000 353.2500 -81.5000 Du        
   1766 ****       249.5000 353.5000 -83.0000 Du        
   1767 ****       249.5000 353.5000 -82.7500 Du        
   1768 ****       249.7500 349.2500 -81.5000 Du        
   1769 ****       249.7500 349.2500 -81.2500 Du        
   1770 ****       249.7500 349.5000 -81.7500 Du        
   1771 ****       249.7500 349.5000 -81.5000 Du        
   1772 ****       249.7500 349.5000 -81.2500 Du        
   1773 ****       249.7500 349.7500 -82.0000 Du        
   1774 ****       249.7500 349.7500 -81.7500 Du        
   1775 ****       249.7500 349.7500 -81.5000 Du        
   1776 ****       249.7500 349.7500 -81.2500 Du        
   1777 ****       249.7500 349.7500 -81.0000 Du        
   1778 ****       249.7500 350.0000 -82.2500 Du        
   1779 ****       249.7500 350.0000 -82.0000 Du        
   1780 ****       249.7500 350.0000 -81.7500 Du        
   1781 ****       249.7500 350.0000 -81.5000 Du        
   1782 ****       249.7500 350.0000 -81.2500 Du        
   1783 ****       249.7500 350.0000 -81.0000 Du        
   1784 ****       249.7500 350.2500 -82.7500 Du        
   1785 ****       249.7500 350.2500 -82.5000 Du        
   1786 ****       249.7500 350.2500 -82.2500 Du        
   1787 ****       249.7500 350.2500 -82.0000 Du        
   1788 ****       249.7500 350.2500 -81.7500 Du        
   1789 ****       249.7500 350.2500 -81.5000 Du        
   1790 ****       249.7500 350.2500 -81.2500 Du        
   1791 ****       249.7500 350.2500 -81.0000 Du        
   1792 ****       249.7500 350.2500 -80.7500 Du        
   1793 ****       249.7500 350.5000 -82.7500 Du        
   1794 ****       249.7500 350.5000 -82.5000 Du        
   1795 ****       249.7500 350.5000 -82.2500 Du        
   1796 ****       249.7500 350.5000 -82.0000 Du        
   1797 ****       249.7500 350.5000 -81.7500 Du        
   1798 ****       249.7500 350.5000 -81.5000 Du        
   1799 ****       249.7500 350.5000 -81.2500 Du        
   1800 ****       249.7500 350.5000 -81.0000 Du        
   1801 ****       249.7500 350.5000 -80.7500 Du        
   1802 ****       249.7500 350.7500 -83.0000 Du        
   1803 ****       249.7500 350.7500 -82.7500 Du        
   1804 ****       249.7500 350.7500 -82.5000 Du        
   1805 ****       249.7500 350.7500 -82.2500 Du        
   1806 ****       249.7500 350.7500 -82.0000 Du        
   1807 ****       249.7500 350.7500 -81.7500 Du        
   1808 ****       249.7500 350.7500 -81.5000 Du        
   1809 ****       249.7500 350.7500 -81.2500 Du        
   1810 ****       249.7500 350.7500 -81.0000 Du        
   1811 ****       249.7500 350.7500 -80.7500 Du        
   1812 ****       249.7500 350.7500 -80.5000 Du        
   1813 ****       249.7500 351.0000 -83.0000 Du        
   1814 ****       249.7500 351.0000 -82.7500 Du        
   1815 ****       249.7500 351.0000 -82.5000 Du        
   1816 ****       249.7500 351.0000 -82.2500 Du        
   1817 ****       249.7500 351.0000 -82.0000 Du        
   1818 ****       249.7500 351.0000 -81.7500 Du        
   1819 ****       249.7500 351.0000 -81.5000 Du        
   1820 ****       249.7500 351.0000 -81.2500 Du        
   1821 ****       249.7500 351.0000 -81.0000 Du        
   1822 ****       249.7500 351.0000 -80.7500 Du        
   1823 ****       249.7500 351.0000 -80.5000 Du        
   1824 ****       249.7500 351.0000 -80.2500 Du        
   1825 ****       249.7500 351.0000 -80.0000 Du        
   1826 ****       249.7500 351.2500 -83.0000 Du        
   1827 ****       249.7500 351.2500 -82.7500 Du        
   1828 ****       249.7500 351.2500 -82.5000 Du        
   1829 ****       249.7500 351.2500 -82.2500 Du        
   1830 ****       249.7500 351.2500 -82.0000 Du        
   1831 ****       249.7500 351.2500 -81.7500 Du        
   1832 ****       249.7500 351.2500 -81.5000 Du        
   1833 ****       249.7500 351.2500 -81.2500 Du        
   1834 ****       249.7500 351.2500 -81.0000 Du        
   1835 ****       249.7500 351.2500 -80.7500 Du        
   1836 ****       249.7500 351.2500 -80.5000 Du        
   1837 ****       249.7500 351.2500 -80.2500 Du        
   1838 ****       249.7500 351.2500 -80.0000 Du        
   1839 ****       249.7500 351.2500 -79.7500 Du        
   1840 ****       249.7500 351.5000 -82.7500 Du        
   1841 ****       249.7500 351.5000 -82.5000 Du        
   1842 ****       249.7500 351.5000 -82.2500 Du        
   1843 ****       249.7500 351.5000 -82.0000 Du        
   1844 ****       249.7500 351.5000 -81.7500 Du        
   1845 ****       249.7500 351.5000 -81.5000 Du        
   1846 ****       249.7500 351.5000 -81.2500 Du        
   1847 ****       249.7500 351.5000 -81.0000 Du        
   1848 ****       249.7500 351.5000 -80.7500 Du        
   1849 ****       249.7500 351.5000 -80.5000 Du        
   1850 ****       249.7500 351.5000 -80.2500 Du        
   1851 ****       249.7500 351.5000 -80.0000 Du        
   1852 ****       249.7500 351.5000 -79.7500 Du        
   1853 ****       249.7500 351.7500 -82.7500 Du        
   1854 ****       249.7500 351.7500 -82.5000 Du        
   1855 ****       249.7500 351.7500 -82.2500 Du        
   1856 ****       249.7500 351.7500 -82.0000 Du        
   1857 ****       249.7500 351.7500 -81.7500 Du        
   1858 ****       249.7500 351.7500 -81.5000 Du        
   1859 ****       249.7500 351.7500 -81.2500 Du        
   1860 ****       249.7500 351.7500 -81.0000 Du        
   1861 ****       249.7500 351.7500 -80.7500 Du        
   1862 ****       249.7500 351.7500 -80.5000 Du        
   1863 ****       249.7500 351.7500 -80.2500 Du        
   1864 ****       249.7500 351.7500 -80.0000 Du        
   1865 ****       249.7500 351.7500 -79.7500 Du        
   1866 ****       249.7500 352.0000 -82.7500 Du        
   1867 ****       249.7500 352.0000 -82.5000 Du        
   1868 ****       249.7500 352.0000 -82.2500 Du        
   1869 ****       249.7500 352.0000 -82.0000 Du        
   1870 ****       249.7500 352.0000 -81.7500 Du        
   1871 ****       249.7500 352.0000 -81.5000 Du        
   1872 ****       249.7500 352.0000 -81.2500 Du        
   1873 ****       249.7500 352.0000 -81.0000 Du        
   1874 ****       249.7500 352.0000 -80.7500 Du        
   1875 ****       249.7500 352.0000 -80.5000 Du        
   1876 ****       249.7500 352.0000 -80.2500 Du        
   1877 ****       249.7500 352.0000 -80.0000 Du        
   1878 ****       249.7500 352.2500 -82.7500 Du        
   1879 ****       249.7500 352.2500 -82.5000 Du        
   1880 ****       249.7500 352.2500 -82.2500 Du        
   1881 ****       249.7500 352.2500 -82.0000 Du        
   1882 ****       249.7500 352.2500 -81.7500 Du        
   1883 ****       249.7500 352.2500 -81.5000 Du        
   1884 ****       249.7500 352.2500 -81.2500 Du        
   1885 ****       249.7500 352.2500 -81.0000 Du        
   1886 ****       249.7500 352.2500 -80.7500 Du        
   1887 ****       249.7500 352.2500 -80.5000 Du        
   1888 ****       249.7500 352.2500 -80.2500 Du        
   1889 ****       249.7500 352.5000 -83.0000 Du        
   1890 ****       249.7500 352.5000 -82.7500 Du        
   1891 ****       249.7500 352.5000 -82.5000 Du        
   1892 ****       249.7500 352.5000 -82.2500 Du        
   1893 ****       249.7500 352.5000 -82.0000 Du        
   1894 ****       249.7500 352.5000 -81.7500 Du        
   1895 ****       249.7500 352.5000 -81.5000 Du        
   1896 ****       249.7500 352.5000 -81.2500 Du        
   1897 ****       249.7500 352.5000 -81.0000 Du        
   1898 ****       249.7500 352.5000 -80.7500 Du        
   1899 ****       249.7500 352.5000 -80.5000 Du        
   1900 ****       249.7500 352.5000 -80.2500 Du        
   1901 ****       249.7500 352.7500 -83.0000 Du        
   1902 ****       249.7500 352.7500 -82.7500 Du        
   1903 ****       249.7500 352.7500 -82.5000 Du        
   1904 ****       249.7500 352.7500 -82.2500 Du        
   1905 ****       249.7500 352.7500 -82.0000 Du        
   1906 ****       249.7500 352.7500 -81.7500 Du        
   1907 ****       249.7500 352.7500 -81.5000 Du        
   1908 ****       249.7500 352.7500 -81.2500 Du        
   1909 ****       249.7500 352.7500 -81.0000 Du        
   1910 ****       249.7500 352.7500 -80.7500 Du        
   1911 ****       249.7500 352.7500 -80.5000 Du        
   1912 ****       249.7500 353.0000 -83.0000 Du        
   1913 ****       249.7500 353.0000 -82.7500 Du        
   1914 ****       249.7500 353.0000 -82.5000 Du        
   1915 ****       249.7500 353.0000 -82.2500 Du        
   1916 ****       249.7500 353.0000 -82.0000 Du        
   1917 ****       249.7500 353.0000 -81.7500 Du        
   1918 ****       249.7500 353.0000 -81.5000 Du        
   1919 ****       249.7500 353.0000 -81.2500 Du        
   1920 ****       249.7500 353.0000 -81.0000 Du        
   1921 ****       249.7500 353.0000 -80.7500 Du        
   1922 ****       249.7500 353.2500 -83.2500 Du        
   1923 ****       249.7500 353.2500 -83.0000 Du        
   1924 ****       249.7500 353.2500 -82.7500 Du        
   1925 ****       249.7500 353.2500 -82.5000 Du        
   1926 ****       249.7500 353.2500 -82.2500 Du        
   1927 ****       249.7500 353.2500 -82.0000 Du        
   1928 ****       249.7500 353.5000 -83.0000 Du        
   1929 ****       249.7500 353.5000 -82.7500 Du        
   1930 ****       250.0000 349.2500 -81.5000 Du        
   1931 ****       250.0000 349.2500 -81.2500 Du        
   1932 ****       250.0000 349.5000 -81.7500 Du        
   1933 ****       250.0000 349.5000 -81.5000 Du        
   1934 ****       250.0000 349.5000 -81.2500 Du        
   1935 ****       250.0000 349.7500 -82.0000 Du        
   1936 ****       250.0000 349.7500 -81.7500 Du        
   1937 ****       250.0000 349.7500 -81.5000 Du        
   1938 ****       250.0000 349.7500 -81.2500 Du        
   1939 ****       250.0000 350.0000 -82.2500 Du        
   1940 ****       250.0000 350.0000 -82.0000 Du        
   1941 ****       250.0000 350.0000 -81.7500 Du        
   1942 ****       250.0000 350.0000 -81.5000 Du        
   1943 ****       250.0000 350.0000 -81.2500 Du        
   1944 ****       250.0000 350.0000 -81.0000 Du        
   1945 ****       250.0000 350.2500 -82.7500 Du        
   1946 ****       250.0000 350.2500 -82.5000 Du        
   1947 ****       250.0000 350.2500 -82.2500 Du        
   1948 ****       250.0000 350.2500 -82.0000 Du        
   1949 ****       250.0000 350.2500 -81.7500 Du        
   1950 ****       250.0000 350.2500 -81.5000 Du        
   1951 ****       250.0000 350.2500 -81.2500 Du        
   1952 ****       250.0000 350.2500 -81.0000 Du        
   1953 ****       250.0000 350.5000 -83.0000 Du        
   1954 ****       250.0000 350.5000 -82.7500 Du        
   1955 ****       250.0000 350.5000 -82.5000 Du        
   1956 ****       250.0000 350.5000 -82.2500 Du        
   1957 ****       250.0000 350.5000 -82.0000 Du        
   1958 ****       250.0000 350.5000 -81.7500 Du        
   1959 ****       250.0000 350.5000 -81.5000 Du        
   1960 ****       250.0000 350.5000 -81.2500 Du        
   1961 ****       250.0000 350.5000 -81.0000 Du        
   1962 ****       250.0000 350.5000 -80.7500 Du        
   1963 ****       250.0000 350.7500 -83.0000 Du        
   1964 ****       250.0000 350.7500 -82.7500 Du        
   1965 ****       250.0000 350.7500 -82.5000 Du        
   1966 ****       250.0000 350.7500 -82.2500 Du        
   1967 ****       250.0000 350.7500 -82.0000 Du        
   1968 ****       250.0000 350.7500 -81.7500 Du        
   1969 ****       250.0000 350.7500 -81.5000 Du        
   1970 ****       250.0000 350.7500 -81.2500 Du        
   1971 ****       250.0000 350.7500 -81.0000 Du        
   1972 ****       250.0000 350.7500 -80.7500 Du        
   1973 ****       250.0000 350.7500 -80.5000 Du        
   1974 ****       250.0000 351.0000 -83.0000 Du        
   1975 ****       250.0000 351.0000 -82.7500 Du        
   1976 ****       250.0000 351.0000 -82.5000 Du        
   1977 ****       250.0000 351.0000 -82.2500 Du        
   1978 ****       250.0000 351.0000 -82.0000 Du        
   1979 ****       250.0000 351.0000 -81.7500 Du        
   1980 ****       250.0000 351.0000 -81.5000 Du        
   1981 ****       250.0000 351.0000 -81.2500 Du        
   1982 ****       250.0000 351.0000 -81.0000 Du        
   1983 ****       250.0000 351.0000 -80.7500 Du        
   1984 ****       250.0000 351.0000 -80.5000 Du        
   1985 ****       250.0000 351.0000 -80.2500 Du        
   1986 ****       250.0000 351.2500 -83.0000 Du        
   1987 ****       250.0000 351.2500 -82.7500 Du        
   1988 ****       250.0000 351.2500 -82.5000 Du        
   1989 ****       250.0000 351.2500 -82.2500 Du        
   1990 ****       250.0000 351.2500 -82.0000 Du        
   1991 ****       250.0000 351.2500 -81.7500 Du        
   1992 ****       250.0000 351.2500 -81.5000 Du        
   1993 ****       250.0000 351.2500 -81.2500 Du        
   1994 ****       250.0000 351.2500 -81.0000 Du        
   1995 ****       250.0000 351.2500 -80.7500 Du        
   1996 ****       250.0000 351.2500 -80.5000 Du        
   1997 ****       250.0000 351.2500 -80.2500 Du        
   1998 ****       250.0000 351.2500 -80.0000 Du        
   1999 ****       250.0000 351.2500 -79.7500 Du        
   2000 ****       250.0000 351.5000 -83.0000 Du        
   2001 ****       250.0000 351.5000 -82.7500 Du        
   2002 ****       250.0000 351.5000 -82.5000 Du        
   2003 ****       250.0000 351.5000 -82.2500 Du        
   2004 ****       250.0000 351.5000 -82.0000 Du        
   2005 ****       250.0000 351.5000 -81.7500 Du        
   2006 ****       250.0000 351.5000 -81.5000 Du        
   2007 ****       250.0000 351.5000 -81.2500 Du        
   2008 ****       250.0000 351.5000 -81.0000 Du        
   2009 ****       250.0000 351.5000 -80.7500 Du        
   2010 ****       250.0000 351.5000 -80.5000 Du        
   2011 ****       250.0000 351.5000 -80.2500 Du        
   2012 ****       250.0000 351.5000 -80.0000 Du        
   2013 ****       250.0000 351.5000 -79.7500 Du        
   2014 ****       250.0000 351.7500 -83.0000 Du        
   2015 ****       250.0000 351.7500 -82.7500 Du        
   2016 ****       250.0000 351.7500 -82.5000 Du        
   2017 ****       250.0000 351.7500 -82.2500 Du        
   2018 ****       250.0000 351.7500 -82.0000 Du        
   2019 ****       250.0000 351.7500 -81.7500 Du        
   2020 ****       250.0000 351.7500 -81.5000 Du        
   2021 ****       250.0000 351.7500 -81.2500 Du        
   2022 ****       250.0000 351.7500 -81.0000 Du        
   2023 ****       250.0000 351.7500 -80.7500 Du        
   2024 ****       250.0000 351.7500 -80.5000 Du        
   2025 ****       250.0000 351.7500 -80.2500 Du        
   2026 ****       250.0000 351.7500 -80.0000 Du        
   2027 ****       250.0000 351.7500 -79.7500 Du        
   2028 ****       250.0000 352.0000 -83.0000 Du        
   2029 ****       250.0000 352.0000 -82.7500 Du        
   2030 ****       250.0000 352.0000 -82.5000 Du        
   2031 ****       250.0000 352.0000 -82.2500 Du        
   2032 ****       250.0000 352.0000 -82.0000 Du        
   2033 ****       250.0000 352.0000 -81.7500 Du        
   2034 ****       250.0000 352.0000 -81.5000 Du        
   2035 ****       250.0000 352.0000 -81.2500 Du        
   2036 ****       250.0000 352.0000 -81.0000 Du        
   2037 ****       250.0000 352.0000 -80.7500 Du        
   2038 ****       250.0000 352.0000 -80.5000 Du        
   2039 ****       250.0000 352.0000 -80.2500 Du        
   2040 ****       250.0000 352.0000 -80.0000 Du        
   2041 ****       250.0000 352.2500 -83.0000 Du        
   2042 ****       250.0000 352.2500 -82.7500 Du        
   2043 ****       250.0000 352.2500 -82.5000 Du        
   2044 ****       250.0000 352.2500 -82.2500 Du        
   2045 ****       250.0000 352.2500 -82.0000 Du        
   2046 ****       250.0000 352.2500 -81.7500 Du        
   2047 ****       250.0000 352.2500 -81.5000 Du        
   2048 ****       250.0000 352.2500 -81.2500 Du        
   2049 ****       250.0000 352.2500 -81.0000 Du        
   2050 ****       250.0000 352.2500 -80.7500 Du        
   2051 ****       250.0000 352.2500 -80.5000 Du        
   2052 ****       250.0000 352.2500 -80.2500 Du        
   2053 ****       250.0000 352.5000 -83.0000 Du        
   2054 ****       250.0000 352.5000 -82.7500 Du        
   2055 ****       250.0000 352.5000 -82.5000 Du        
   2056 ****       250.0000 352.5000 -82.2500 Du        
   2057 ****       250.0000 352.5000 -82.0000 Du        
   2058 ****       250.0000 352.5000 -81.7500 Du        
   2059 ****       250.0000 352.5000 -81.5000 Du        
   2060 ****       250.0000 352.5000 -81.2500 Du        
   2061 ****       250.0000 352.5000 -81.0000 Du        
   2062 ****       250.0000 352.5000 -80.7500 Du        
   2063 ****       250.0000 352.5000 -80.5000 Du        
   2064 ****       250.0000 352.5000 -80.2500 Du        
   2065 ****       250.0000 352.7500 -83.0000 Du        
   2066 ****       250.0000 352.7500 -82.7500 Du        
   2067 ****       250.0000 352.7500 -82.5000 Du        
   2068 ****       250.0000 352.7500 -82.2500 Du        
   2069 ****       250.0000 352.7500 -82.0000 Du        
   2070 ****       250.0000 352.7500 -81.7500 Du        
   2071 ****       250.0000 352.7500 -81.5000 Du        
   2072 ****       250.0000 352.7500 -81.2500 Du        
   2073 ****       250.0000 352.7500 -81.0000 Du        
   2074 ****       250.0000 352.7500 -80.7500 Du        
   2075 ****       250.0000 352.7500 -80.5000 Du        
   2076 ****       250.0000 353.0000 -83.2500 Du        
   2077 ****       250.0000 353.0000 -83.0000 Du        
   2078 ****       250.0000 353.0000 -82.7500 Du        
   2079 ****       250.0000 353.0000 -82.5000 Du        
   2080 ****       250.0000 353.0000 -82.2500 Du        
   2081 ****       250.0000 353.0000 -82.0000 Du        
   2082 ****       250.0000 353.0000 -81.7500 Du        
   2083 ****       250.0000 353.0000 -81.5000 Du        
   2084 ****       250.0000 353.0000 -81.2500 Du        
   2085 ****       250.0000 353.2500 -83.0000 Du        
   2086 ****       250.0000 353.2500 -82.7500 Du        
   2087 ****       250.2500 349.2500 -81.5000 Du        
   2088 ****       250.2500 349.5000 -81.7500 Du        
   2089 ****       250.2500 349.5000 -81.5000 Du        
   2090 ****       250.2500 349.5000 -81.2500 Du        
   2091 ****       250.2500 349.7500 -82.0000 Du        
   2092 ****       250.2500 349.7500 -81.7500 Du        
   2093 ****       250.2500 349.7500 -81.5000 Du        
   2094 ****       250.2500 349.7500 -81.2500 Du        
   2095 ****       250.2500 350.0000 -82.2500 Du        
   2096 ****       250.2500 350.0000 -82.0000 Du        
   2097 ****       250.2500 350.0000 -81.7500 Du        
   2098 ****       250.2500 350.0000 -81.5000 Du        
   2099 ****       250.2500 350.0000 -81.2500 Du        
   2100 ****       250.2500 350.0000 -81.0000 Du        
   2101 ****       250.2500 350.2500 -82.7500 Du        
   2102 ****       250.2500 350.2500 -82.5000 Du        
   2103 ****       250.2500 350.2500 -82.2500 Du        
   2104 ****       250.2500 350.2500 -82.0000 Du        
   2105 ****       250.2500 350.2500 -81.7500 Du        
   2106 ****       250.2500 350.2500 -81.5000 Du        
   2107 ****       250.2500 350.2500 -81.2500 Du        
   2108 ****       250.2500 350.2500 -81.0000 Du        
   2109 ****       250.2500 350.5000 -83.0000 Du        
   2110 ****       250.2500 350.5000 -82.7500 Du        
   2111 ****       250.2500 350.5000 -82.5000 Du        
   2112 ****       250.2500 350.5000 -82.2500 Du        
   2113 ****       250.2500 350.5000 -82.0000 Du        
   2114 ****       250.2500 350.5000 -81.7500 Du        
   2115 ****       250.2500 350.5000 -81.5000 Du        
   2116 ****       250.2500 350.5000 -81.2500 Du        
   2117 ****       250.2500 350.5000 -81.0000 Du        
   2118 ****       250.2500 350.5000 -80.7500 Du        
   2119 ****       250.2500 350.7500 -83.2500 Du        
   2120 ****       250.2500 350.7500 -83.0000 Du        
   2121 ****       250.2500 350.7500 -82.7500 Du        
   2122 ****       250.2500 350.7500 -82.5000 Du        
   2123 ****       250.2500 350.7500 -82.2500 Du        
   2124 ****       250.2500 350.7500 -82.0000 Du        
   2125 ****       250.2500 350.7500 -81.7500 Du        
   2126 ****       250.2500 350.7500 -81.5000 Du        
   2127 ****       250.2500 350.7500 -81.2500 Du        
   2128 ****       250.2500 350.7500 -81.0000 Du        
   2129 ****       250.2500 350.7500 -80.7500 Du        
   2130 ****       250.2500 350.7500 -80.5000 Du        
   2131 ****       250.2500 351.0000 -83.2500 Du        
   2132 ****       250.2500 351.0000 -83.0000 Du        
   2133 ****       250.2500 351.0000 -82.7500 Du        
   2134 ****       250.2500 351.0000 -82.5000 Du        
   2135 ****       250.2500 351.0000 -82.2500 Du        
   2136 ****       250.2500 351.0000 -82.0000 Du        
   2137 ****       250.2500 351.0000 -81.7500 Du        
   2138 ****       250.2500 351.0000 -81.5000 Du        
   2139 ****       250.2500 351.0000 -81.2500 Du        
   2140 ****       250.2500 351.0000 -81.0000 Du        
   2141 ****       250.2500 351.0000 -80.7500 Du        
   2142 ****       250.2500 351.0000 -80.5000 Du        
   2143 ****       250.2500 351.0000 -80.2500 Du        
   2144 ****       250.2500 351.2500 -83.0000 Du        
   2145 ****       250.2500 351.2500 -82.7500 Du        
   2146 ****       250.2500 351.2500 -82.5000 Du        
   2147 ****       250.2500 351.2500 -82.2500 Du        
   2148 ****       250.2500 351.2500 -82.0000 Du        
   2149 ****       250.2500 351.2500 -81.7500 Du        
   2150 ****       250.2500 351.2500 -81.5000 Du        
   2151 ****       250.2500 351.2500 -81.2500 Du        
   2152 ****       250.2500 351.2500 -81.0000 Du        
   2153 ****       250.2500 351.2500 -80.7500 Du        
   2154 ****       250.2500 351.2500 -80.5000 Du        
   2155 ****       250.2500 351.2500 -80.2500 Du        
   2156 ****       250.2500 351.2500 -80.0000 Du        
   2157 ****       250.2500 351.5000 -83.0000 Du        
   2158 ****       250.2500 351.5000 -82.7500 Du        
   2159 ****       250.2500 351.5000 -82.5000 Du        
   2160 ****       250.2500 351.5000 -82.2500 Du        
   2161 ****       250.2500 351.5000 -82.0000 Du        
   2162 ****       250.2500 351.5000 -81.7500 Du        
   2163 ****       250.2500 351.5000 -81.5000 Du        
   2164 ****       250.2500 351.5000 -81.2500 Du        
   2165 ****       250.2500 351.5000 -81.0000 Du        
   2166 ****       250.2500 351.5000 -80.7500 Du        
   2167 ****       250.2500 351.5000 -80.5000 Du        
   2168 ****       250.2500 351.5000 -80.2500 Du        
   2169 ****       250.2500 351.5000 -80.0000 Du        
   2170 ****       250.2500 351.5000 -79.7500 Du        
   2171 ****       250.2500 351.7500 -83.0000 Du        
   2172 ****       250.2500 351.7500 -82.7500 Du        
   2173 ****       250.2500 351.7500 -82.5000 Du        
   2174 ****       250.2500 351.7500 -82.2500 Du        
   2175 ****       250.2500 351.7500 -82.0000 Du        
   2176 ****       250.2500 351.7500 -81.7500 Du        
   2177 ****       250.2500 351.7500 -81.5000 Du        
   2178 ****       250.2500 351.7500 -81.2500 Du        
   2179 ****       250.2500 351.7500 -81.0000 Du        
   2180 ****       250.2500 351.7500 -80.7500 Du        
   2181 ****       250.2500 351.7500 -80.5000 Du        
   2182 ****       250.2500 351.7500 -80.2500 Du        
   2183 ****       250.2500 351.7500 -80.0000 Du        
   2184 ****       250.2500 351.7500 -79.7500 Du        
   2185 ****       250.2500 352.0000 -83.0000 Du        
   2186 ****       250.2500 352.0000 -82.7500 Du        
   2187 ****       250.2500 352.0000 -82.5000 Du        
   2188 ****       250.2500 352.0000 -82.2500 Du        
   2189 ****       250.2500 352.0000 -82.0000 Du        
   2190 ****       250.2500 352.0000 -81.7500 Du        
   2191 ****       250.2500 352.0000 -81.5000 Du        
   2192 ****       250.2500 352.0000 -81.2500 Du        
   2193 ****       250.2500 352.0000 -81.0000 Du        
   2194 ****       250.2500 352.0000 -80.7500 Du        
   2195 ****       250.2500 352.0000 -80.5000 Du        
   2196 ****       250.2500 352.0000 -80.2500 Du        
   2197 ****       250.2500 352.0000 -80.0000 Du        
   2198 ****       250.2500 352.2500 -82.7500 Du        
   2199 ****       250.2500 352.2500 -82.5000 Du        
   2200 ****       250.2500 352.2500 -82.2500 Du        
   2201 ****       250.2500 352.2500 -82.0000 Du        
   2202 ****       250.2500 352.2500 -81.7500 Du        
   2203 ****       250.2500 352.2500 -81.5000 Du        
   2204 ****       250.2500 352.2500 -81.2500 Du        
   2205 ****       250.2500 352.2500 -81.0000 Du        
   2206 ****       250.2500 352.2500 -80.7500 Du        
   2207 ****       250.2500 352.2500 -80.5000 Du        
   2208 ****       250.2500 352.2500 -80.2500 Du        
   2209 ****       250.2500 352.5000 -82.7500 Du        
   2210 ****       250.2500 352.5000 -82.5000 Du        
   2211 ****       250.2500 352.5000 -82.2500 Du        
   2212 ****       250.2500 352.5000 -82.0000 Du        
   2213 ****       250.2500 352.5000 -81.7500 Du        
   2214 ****       250.2500 352.5000 -81.5000 Du        
   2215 ****       250.2500 352.5000 -81.2500 Du        
   2216 ****       250.2500 352.5000 -81.0000 Du        
   2217 ****       250.2500 352.5000 -80.7500 Du        
   2218 ****       250.2500 352.5000 -80.5000 Du        
   2219 ****       250.2500 352.5000 -80.2500 Du        
   2220 ****       250.2500 352.7500 -82.7500 Du        
   2221 ****       250.2500 352.7500 -82.5000 Du        
   2222 ****       250.2500 352.7500 -82.2500 Du        
   2223 ****       250.2500 352.7500 -82.0000 Du        
   2224 ****       250.2500 352.7500 -81.7500 Du        
   2225 ****       250.2500 352.7500 -81.5000 Du        
   2226 ****       250.2500 352.7500 -81.2500 Du        
   2227 ****       250.2500 352.7500 -81.0000 Du        
   2228 ****       250.2500 352.7500 -80.7500 Du        
   2229 ****       250.5000 349.2500 -81.5000 Du        
   2230 ****       250.5000 349.5000 -81.7500 Du        
   2231 ****       250.5000 349.5000 -81.5000 Du        
   2232 ****       250.5000 349.5000 -81.2500 Du        
   2233 ****       250.5000 349.7500 -82.0000 Du        
   2234 ****       250.5000 349.7500 -81.7500 Du        
   2235 ****       250.5000 349.7500 -81.5000 Du        
   2236 ****       250.5000 349.7500 -81.2500 Du        
   2237 ****       250.5000 350.0000 -82.2500 Du        
   2238 ****       250.5000 350.0000 -82.0000 Du        
   2239 ****       250.5000 350.0000 -81.7500 Du        
   2240 ****       250.5000 350.0000 -81.5000 Du        
   2241 ****       250.5000 350.0000 -81.2500 Du        
   2242 ****       250.5000 350.2500 -82.7500 Du        
   2243 ****       250.5000 350.2500 -82.5000 Du        
   2244 ****       250.5000 350.2500 -82.2500 Du        
   2245 ****       250.5000 350.2500 -82.0000 Du        
   2246 ****       250.5000 350.2500 -81.7500 Du        
   2247 ****       250.5000 350.2500 -81.5000 Du        
   2248 ****       250.5000 350.2500 -81.2500 Du        
   2249 ****       250.5000 350.2500 -81.0000 Du        
   2250 ****       250.5000 350.5000 -83.2500 Du        
   2251 ****       250.5000 350.5000 -83.0000 Du        
   2252 ****       250.5000 350.5000 -82.7500 Du        
   2253 ****       250.5000 350.5000 -82.5000 Du        
   2254 ****       250.5000 350.5000 -82.2500 Du        
   2255 ****       250.5000 350.5000 -82.0000 Du        
   2256 ****       250.5000 350.5000 -81.7500 Du        
   2257 ****       250.5000 350.5000 -81.5000 Du        
   2258 ****       250.5000 350.5000 -81.2500 Du        
   2259 ****       250.5000 350.5000 -81.0000 Du        
   2260 ****       250.5000 350.7500 -83.2500 Du        
   2261 ****       250.5000 350.7500 -83.0000 Du        
   2262 ****       250.5000 350.7500 -82.7500 Du        
   2263 ****       250.5000 350.7500 -82.5000 Du        
   2264 ****       250.5000 350.7500 -82.2500 Du        
   2265 ****       250.5000 350.7500 -82.0000 Du        
   2266 ****       250.5000 350.7500 -81.7500 Du        
   2267 ****       250.5000 350.7500 -81.5000 Du        
   2268 ****       250.5000 350.7500 -81.2500 Du        
   2269 ****       250.5000 350.7500 -81.0000 Du        
   2270 ****       250.5000 350.7500 -80.7500 Du        
   2271 ****       250.5000 351.0000 -83.2500 Du        
   2272 ****       250.5000 351.0000 -83.0000 Du        
   2273 ****       250.5000 351.0000 -82.7500 Du        
   2274 ****       250.5000 351.0000 -82.5000 Du        
   2275 ****       250.5000 351.0000 -82.2500 Du        
   2276 ****       250.5000 351.0000 -82.0000 Du        
   2277 ****       250.5000 351.0000 -81.7500 Du        
   2278 ****       250.5000 351.0000 -81.5000 Du        
   2279 ****       250.5000 351.0000 -81.2500 Du        
   2280 ****       250.5000 351.0000 -81.0000 Du        
   2281 ****       250.5000 351.0000 -80.7500 Du        
   2282 ****       250.5000 351.0000 -80.5000 Du        
   2283 ****       250.5000 351.2500 -83.2500 Du        
   2284 ****       250.5000 351.2500 -83.0000 Du        
   2285 ****       250.5000 351.2500 -82.7500 Du        
   2286 ****       250.5000 351.2500 -82.5000 Du        
   2287 ****       250.5000 351.2500 -82.2500 Du        
   2288 ****       250.5000 351.2500 -82.0000 Du        
   2289 ****       250.5000 351.2500 -81.7500 Du        
   2290 ****       250.5000 351.2500 -81.5000 Du        
   2291 ****       250.5000 351.2500 -81.2500 Du        
   2292 ****       250.5000 351.2500 -81.0000 Du        
   2293 ****       250.5000 351.2500 -80.7500 Du        
   2294 ****       250.5000 351.2500 -80.5000 Du        
   2295 ****       250.5000 351.2500 -80.2500 Du        
   2296 ****       250.5000 351.2500 -80.0000 Du        
   2297 ****       250.5000 351.5000 -83.0000 Du        
   2298 ****       250.5000 351.5000 -82.7500 Du        
   2299 ****       250.5000 351.5000 -82.5000 Du        
   2300 ****       250.5000 351.5000 -82.2500 Du        
   2301 ****       250.5000 351.5000 -82.0000 Du        
   2302 ****       250.5000 351.5000 -81.7500 Du        
   2303 ****       250.5000 351.5000 -81.5000 Du        
   2304 ****       250.5000 351.5000 -81.2500 Du        
   2305 ****       250.5000 351.5000 -81.0000 Du        
   2306 ****       250.5000 351.5000 -80.7500 Du        
   2307 ****       250.5000 351.5000 -80.5000 Du        
   2308 ****       250.5000 351.5000 -80.2500 Du        
   2309 ****       250.5000 351.5000 -80.0000 Du        
   2310 ****       250.5000 351.7500 -83.0000 Du        
   2311 ****       250.5000 351.7500 -82.7500 Du        
   2312 ****       250.5000 351.7500 -82.5000 Du        
   2313 ****       250.5000 351.7500 -82.2500 Du        
   2314 ****       250.5000 351.7500 -82.0000 Du        
   2315 ****       250.5000 351.7500 -81.7500 Du        
   2316 ****       250.5000 351.7500 -81.5000 Du        
   2317 ****       250.5000 351.7500 -81.2500 Du        
   2318 ****       250.5000 351.7500 -81.0000 Du        
   2319 ****       250.5000 351.7500 -80.7500 Du        
   2320 ****       250.5000 351.7500 -80.5000 Du        
   2321 ****       250.5000 351.7500 -80.2500 Du        
   2322 ****       250.5000 351.7500 -80.0000 Du        
   2323 ****       250.5000 351.7500 -79.7500 Du        
   2324 ****       250.5000 352.0000 -82.7500 Du        
   2325 ****       250.5000 352.0000 -82.5000 Du        
   2326 ****       250.5000 352.0000 -82.2500 Du        
   2327 ****       250.5000 352.0000 -82.0000 Du        
   2328 ****       250.5000 352.0000 -81.7500 Du        
   2329 ****       250.5000 352.0000 -81.5000 Du        
   2330 ****       250.5000 352.0000 -81.2500 Du        
   2331 ****       250.5000 352.0000 -81.0000 Du        
   2332 ****       250.5000 352.0000 -80.7500 Du        
   2333 ****       250.5000 352.0000 -80.5000 Du        
   2334 ****       250.5000 352.0000 -80.2500 Du        
   2335 ****       250.5000 352.0000 -80.0000 Du        
   2336 ****       250.5000 352.2500 -82.2500 Du        
   2337 ****       250.5000 352.2500 -82.0000 Du        
   2338 ****       250.5000 352.2500 -81.7500 Du        
   2339 ****       250.5000 352.2500 -81.5000 Du        
   2340 ****       250.5000 352.2500 -81.2500 Du        
   2341 ****       250.5000 352.2500 -81.0000 Du        
   2342 ****       250.5000 352.2500 -80.7500 Du        
   2343 ****       250.5000 352.2500 -80.5000 Du        
   2344 ****       250.5000 352.2500 -80.2500 Du        
   2345 ****       250.5000 352.5000 -82.0000 Du        
   2346 ****       250.5000 352.5000 -81.7500 Du        
   2347 ****       250.5000 352.5000 -81.5000 Du        
   2348 ****       250.5000 352.5000 -81.2500 Du        
   2349 ****       250.5000 352.5000 -81.0000 Du        
   2350 ****       250.5000 352.5000 -80.7500 Du        
   2351 ****       250.5000 352.5000 -80.5000 Du        
   2352 ****       250.5000 352.5000 -80.2500 Du        
   2353 ****       250.7500 349.5000 -81.7500 Du        
   2354 ****       250.7500 349.5000 -81.5000 Du        
   2355 ****       250.7500 349.5000 -81.2500 Du        
   2356 ****       250.7500 349.7500 -82.0000 Du        
   2357 ****       250.7500 349.7500 -81.7500 Du        
   2358 ****       250.7500 349.7500 -81.5000 Du        
   2359 ****       250.7500 349.7500 -81.2500 Du        
   2360 ****       250.7500 350.0000 -82.5000 Du        
   2361 ****       250.7500 350.0000 -82.2500 Du        
   2362 ****       250.7500 350.0000 -82.0000 Du        
   2363 ****       250.7500 350.0000 -81.7500 Du        
   2364 ****       250.7500 350.0000 -81.5000 Du        
   2365 ****       250.7500 350.0000 -81.2500 Du        
   2366 ****       250.7500 350.2500 -83.0000 Du        
   2367 ****       250.7500 350.2500 -82.7500 Du        
   2368 ****       250.7500 350.2500 -82.5000 Du        
   2369 ****       250.7500 350.2500 -82.2500 Du        
   2370 ****       250.7500 350.2500 -82.0000 Du        
   2371 ****       250.7500 350.2500 -81.7500 Du        
   2372 ****       250.7500 350.2500 -81.5000 Du        
   2373 ****       250.7500 350.2500 -81.2500 Du        
   2374 ****       250.7500 350.2500 -81.0000 Du        
   2375 ****       250.7500 350.5000 -83.2500 Du        
   2376 ****       250.7500 350.5000 -83.0000 Du        
   2377 ****       250.7500 350.5000 -82.7500 Du        
   2378 ****       250.7500 350.5000 -82.5000 Du        
   2379 ****       250.7500 350.5000 -82.2500 Du        
   2380 ****       250.7500 350.5000 -82.0000 Du        
   2381 ****       250.7500 350.5000 -81.7500 Du        
   2382 ****       250.7500 350.5000 -81.5000 Du        
   2383 ****       250.7500 350.5000 -81.2500 Du        
   2384 ****       250.7500 350.5000 -81.0000 Du        
   2385 ****       250.7500 350.7500 -83.5000 Du        
   2386 ****       250.7500 350.7500 -83.2500 Du        
   2387 ****       250.7500 350.7500 -83.0000 Du        
   2388 ****       250.7500 350.7500 -82.7500 Du        
   2389 ****       250.7500 350.7500 -82.5000 Du        
   2390 ****       250.7500 350.7500 -82.2500 Du        
   2391 ****       250.7500 350.7500 -82.0000 Du        
   2392 ****       250.7500 350.7500 -81.7500 Du        
   2393 ****       250.7500 350.7500 -81.5000 Du        
   2394 ****       250.7500 350.7500 -81.2500 Du        
   2395 ****       250.7500 350.7500 -81.0000 Du        
   2396 ****       250.7500 350.7500 -80.7500 Du        
   2397 ****       250.7500 351.0000 -83.5000 Du        
   2398 ****       250.7500 351.0000 -83.2500 Du        
   2399 ****       250.7500 351.0000 -83.0000 Du        
   2400 ****       250.7500 351.0000 -82.7500 Du        
   2401 ****       250.7500 351.0000 -82.5000 Du        
   2402 ****       250.7500 351.0000 -82.2500 Du        
   2403 ****       250.7500 351.0000 -82.0000 Du        
   2404 ****       250.7500 351.0000 -81.7500 Du        
   2405 ****       250.7500 351.0000 -81.5000 Du        
   2406 ****       250.7500 351.0000 -81.2500 Du        
   2407 ****       250.7500 351.0000 -81.0000 Du        
   2408 ****       250.7500 351.0000 -80.7500 Du        
   2409 ****       250.7500 351.0000 -80.5000 Du        
   2410 ****       250.7500 351.2500 -83.2500 Du        
   2411 ****       250.7500 351.2500 -83.0000 Du        
   2412 ****       250.7500 351.2500 -82.7500 Du        
   2413 ****       250.7500 351.2500 -82.5000 Du        
   2414 ****       250.7500 351.2500 -82.2500 Du        
   2415 ****       250.7500 351.2500 -82.0000 Du        
   2416 ****       250.7500 351.2500 -81.7500 Du        
   2417 ****       250.7500 351.2500 -81.5000 Du        
   2418 ****       250.7500 351.2500 -81.2500 Du        
   2419 ****       250.7500 351.2500 -81.0000 Du        
   2420 ****       250.7500 351.2500 -80.7500 Du        
   2421 ****       250.7500 351.2500 -80.5000 Du        
   2422 ****       250.7500 351.2500 -80.2500 Du        
   2423 ****       250.7500 351.5000 -82.7500 Du        
   2424 ****       250.7500 351.5000 -82.5000 Du        
   2425 ****       250.7500 351.5000 -82.2500 Du        
   2426 ****       250.7500 351.5000 -82.0000 Du        
   2427 ****       250.7500 351.5000 -81.7500 Du        
   2428 ****       250.7500 351.5000 -81.5000 Du        
   2429 ****       250.7500 351.5000 -81.2500 Du        
   2430 ****       250.7500 351.5000 -81.0000 Du        
   2431 ****       250.7500 351.5000 -80.7500 Du        
   2432 ****       250.7500 351.5000 -80.5000 Du        
   2433 ****       250.7500 351.5000 -80.2500 Du        
   2434 ****       250.7500 351.5000 -80.0000 Du        
   2435 ****       250.7500 351.7500 -82.5000 Du        
   2436 ****       250.7500 351.7500 -82.2500 Du        
   2437 ****       250.7500 351.7500 -82.0000 Du        
   2438 ****       250.7500 351.7500 -81.7500 Du        
   2439 ****       250.7500 351.7500 -81.5000 Du        
   2440 ****       250.7500 351.7500 -81.2500 Du        
   2441 ****       250.7500 351.7500 -81.0000 Du        
   2442 ****       250.7500 351.7500 -80.7500 Du        
   2443 ****       250.7500 351.7500 -80.5000 Du        
   2444 ****       250.7500 351.7500 -80.2500 Du        
   2445 ****       250.7500 351.7500 -80.0000 Du        
   2446 ****       250.7500 352.0000 -82.0000 Du        
   2447 ****       250.7500 352.0000 -81.7500 Du        
   2448 ****       250.7500 352.0000 -81.5000 Du        
   2449 ****       250.7500 352.0000 -81.2500 Du        
   2450 ****       250.7500 352.0000 -81.0000 Du        
   2451 ****       250.7500 352.0000 -80.7500 Du        
   2452 ****       250.7500 352.0000 -80.5000 Du        
   2453 ****       250.7500 352.0000 -80.2500 Du        
   2454 ****       250.7500 352.0000 -80.0000 Du        
   2455 ****       250.7500 352.2500 -81.7500 Du        
   2456 ****       250.7500 352.2500 -81.5000 Du        
   2457 ****       250.7500 352.2500 -81.2500 Du        
   2458 ****       250.7500 352.2500 -81.0000 Du        
   2459 ****       250.7500 352.2500 -80.7500 Du        
   2460 ****       250.7500 352.2500 -80.5000 Du        
   2461 ****       250.7500 352.2500 -80.2500 Du        
   2462 ****       250.7500 352.5000 -80.7500 Du        
   2463 ****       250.7500 352.5000 -80.5000 Du        
   2464 ****       251.0000 349.2500 -81.5000 Du        
   2465 ****       251.0000 349.5000 -81.7500 Du        
   2466 ****       251.0000 349.5000 -81.5000 Du        
   2467 ****       251.0000 349.5000 -81.2500 Du        
   2468 ****       251.0000 349.7500 -82.2500 Du        
   2469 ****       251.0000 349.7500 -82.0000 Du        
   2470 ****       251.0000 349.7500 -81.7500 Du        
   2471 ****       251.0000 349.7500 -81.5000 Du        
   2472 ****       251.0000 349.7500 -81.2500 Du        
   2473 ****       251.0000 350.0000 -82.5000 Du        
   2474 ****       251.0000 350.0000 -82.2500 Du        
   2475 ****       251.0000 350.0000 -82.0000 Du        
   2476 ****       251.0000 350.0000 -81.7500 Du        
   2477 ****       251.0000 350.0000 -81.5000 Du        
   2478 ****       251.0000 350.0000 -81.2500 Du        
   2479 ****       251.0000 350.2500 -83.2500 Du        
   2480 ****       251.0000 350.2500 -83.0000 Du        
   2481 ****       251.0000 350.2500 -82.7500 Du        
   2482 ****       251.0000 350.2500 -82.5000 Du        
   2483 ****       251.0000 350.2500 -82.2500 Du        
   2484 ****       251.0000 350.2500 -82.0000 Du        
   2485 ****       251.0000 350.2500 -81.7500 Du        
   2486 ****       251.0000 350.2500 -81.5000 Du        
   2487 ****       251.0000 350.2500 -81.2500 Du        
   2488 ****       251.0000 350.2500 -81.0000 Du        
   2489 ****       251.0000 350.5000 -83.5000 Du        
   2490 ****       251.0000 350.5000 -83.2500 Du        
   2491 ****       251.0000 350.5000 -83.0000 Du        
   2492 ****       251.0000 350.5000 -82.7500 Du        
   2493 ****       251.0000 350.5000 -82.5000 Du        
   2494 ****       251.0000 350.5000 -82.2500 Du        
   2495 ****       251.0000 350.5000 -82.0000 Du        
   2496 ****       251.0000 350.5000 -81.7500 Du        
   2497 ****       251.0000 350.5000 -81.5000 Du        
   2498 ****       251.0000 350.5000 -81.2500 Du        
   2499 ****       251.0000 350.5000 -81.0000 Du        
   2500 ****       251.0000 350.7500 -83.5000 Du        
   2501 ****       251.0000 350.7500 -83.2500 Du        
   2502 ****       251.0000 350.7500 -83.0000 Du        
   2503 ****       251.0000 350.7500 -82.7500 Du        
   2504 ****       251.0000 350.7500 -82.5000 Du        
   2505 ****       251.0000 350.7500 -82.2500 Du        
   2506 ****       251.0000 350.7500 -82.0000 Du        
   2507 ****       251.0000 350.7500 -81.7500 Du        
   2508 ****       251.0000 350.7500 -81.5000 Du        
   2509 ****       251.0000 350.7500 -81.2500 Du        
   2510 ****       251.0000 350.7500 -81.0000 Du        
   2511 ****       251.0000 350.7500 -80.7500 Du        
   2512 ****       251.0000 351.0000 -83.5000 Du        
   2513 ****       251.0000 351.0000 -83.2500 Du        
   2514 ****       251.0000 351.0000 -83.0000 Du        
   2515 ****       251.0000 351.0000 -82.7500 Du        
   2516 ****       251.0000 351.0000 -82.5000 Du        
   2517 ****       251.0000 351.0000 -82.2500 Du        
   2518 ****       251.0000 351.0000 -82.0000 Du        
   2519 ****       251.0000 351.0000 -81.7500 Du        
   2520 ****       251.0000 351.0000 -81.5000 Du        
   2521 ****       251.0000 351.0000 -81.2500 Du        
   2522 ****       251.0000 351.0000 -81.0000 Du        
   2523 ****       251.0000 351.0000 -80.7500 Du        
   2524 ****       251.0000 351.0000 -80.5000 Du        
   2525 ****       251.0000 351.2500 -83.0000 Du        
   2526 ****       251.0000 351.2500 -82.7500 Du        
   2527 ****       251.0000 351.2500 -82.5000 Du        
   2528 ****       251.0000 351.2500 -82.2500 Du        
   2529 ****       251.0000 351.2500 -82.0000 Du        
   2530 ****       251.0000 351.2500 -81.7500 Du        
   2531 ****       251.0000 351.2500 -81.5000 Du        
   2532 ****       251.0000 351.2500 -81.2500 Du        
   2533 ****       251.0000 351.2500 -81.0000 Du        
   2534 ****       251.0000 351.2500 -80.7500 Du        
   2535 ****       251.0000 351.2500 -80.5000 Du        
   2536 ****       251.0000 351.2500 -80.2500 Du        
   2537 ****       251.0000 351.5000 -82.2500 Du        
   2538 ****       251.0000 351.5000 -82.0000 Du        
   2539 ****       251.0000 351.5000 -81.7500 Du        
   2540 ****       251.0000 351.5000 -81.5000 Du        
   2541 ****       251.0000 351.5000 -81.2500 Du        
   2542 ****       251.0000 351.5000 -81.0000 Du        
   2543 ****       251.0000 351.5000 -80.7500 Du        
   2544 ****       251.0000 351.5000 -80.5000 Du        
   2545 ****       251.0000 351.5000 -80.2500 Du        
   2546 ****       251.0000 351.5000 -80.0000 Du        
   2547 ****       251.0000 351.7500 -82.0000 Du        
   2548 ****       251.0000 351.7500 -81.7500 Du        
   2549 ****       251.0000 351.7500 -81.5000 Du        
   2550 ****       251.0000 351.7500 -81.2500 Du        
   2551 ****       251.0000 351.7500 -81.0000 Du        
   2552 ****       251.0000 351.7500 -80.7500 Du        
   2553 ****       251.0000 351.7500 -80.5000 Du        
   2554 ****       251.0000 351.7500 -80.2500 Du        
   2555 ****       251.0000 351.7500 -80.0000 Du        
   2556 ****       251.0000 352.0000 -81.5000 Du        
   2557 ****       251.0000 352.0000 -81.2500 Du        
   2558 ****       251.0000 352.0000 -81.0000 Du        
   2559 ****       251.0000 352.0000 -80.7500 Du        
   2560 ****       251.0000 352.0000 -80.5000 Du        
   2561 ****       251.0000 352.0000 -80.2500 Du        
   2562 ****       251.0000 352.0000 -80.0000 Du        
   2563 ****       251.0000 352.2500 -81.0000 Du        
   2564 ****       251.0000 352.2500 -80.7500 Du        
   2565 ****       251.0000 352.2500 -80.5000 Du        
   2566 ****       251.0000 352.2500 -80.2500 Du        
   2567 ****       251.2500 349.2500 -81.7500 Du        
   2568 ****       251.2500 349.2500 -81.5000 Du        
   2569 ****       251.2500 349.5000 -82.0000 Du        
   2570 ****       251.2500 349.5000 -81.7500 Du        
   2571 ****       251.2500 349.5000 -81.5000 Du        
   2572 ****       251.2500 349.5000 -81.2500 Du        
   2573 ****       251.2500 349.7500 -82.2500 Du        
   2574 ****       251.2500 349.7500 -82.0000 Du        
   2575 ****       251.2500 349.7500 -81.7500 Du        
   2576 ****       251.2500 349.7500 -81.5000 Du        
   2577 ****       251.2500 349.7500 -81.2500 Du        
   2578 ****       251.2500 350.0000 -82.7500 Du        
   2579 ****       251.2500 350.0000 -82.5000 Du        
   2580 ****       251.2500 350.0000 -82.2500 Du        
   2581 ****       251.2500 350.0000 -82.0000 Du        
   2582 ****       251.2500 350.0000 -81.7500 Du        
   2583 ****       251.2500 350.0000 -81.5000 Du        
   2584 ****       251.2500 350.0000 -81.2500 Du        
   2585 ****       251.2500 350.2500 -83.2500 Du        
   2586 ****       251.2500 350.2500 -83.0000 Du        
   2587 ****       251.2500 350.2500 -82.7500 Du        
   2588 ****       251.2500 350.2500 -82.5000 Du        
   2589 ****       251.2500 350.2500 -82.2500 Du        
   2590 ****       251.2500 350.2500 -82.0000 Du        
   2591 ****       251.2500 350.2500 -81.7500 Du        
   2592 ****       251.2500 350.2500 -81.5000 Du        
   2593 ****       251.2500 350.2500 -81.2500 Du        
   2594 ****       251.2500 350.2500 -81.0000 Du        
   2595 ****       251.2500 350.5000 -83.7500 Du        
   2596 ****       251.2500 350.5000 -83.5000 Du        
   2597 ****       251.2500 350.5000 -83.2500 Du        
   2598 ****       251.2500 350.5000 -83.0000 Du        
   2599 ****       251.2500 350.5000 -82.7500 Du        
   2600 ****       251.2500 350.5000 -82.5000 Du        
   2601 ****       251.2500 350.5000 -82.2500 Du        
   2602 ****       251.2500 350.5000 -82.0000 Du        
   2603 ****       251.2500 350.5000 -81.7500 Du        
   2604 ****       251.2500 350.5000 -81.5000 Du        
   2605 ****       251.2500 350.5000 -81.2500 Du        
   2606 ****       251.2500 350.5000 -81.0000 Du        
   2607 ****       251.2500 350.7500 -83.7500 Du        
   2608 ****       251.2500 350.7500 -83.5000 Du        
   2609 ****       251.2500 350.7500 -83.2500 Du        
   2610 ****       251.2500 350.7500 -83.0000 Du        
   2611 ****       251.2500 350.7500 -82.7500 Du        
   2612 ****       251.2500 350.7500 -82.5000 Du        
   2613 ****       251.2500 350.7500 -82.2500 Du        
   2614 ****       251.2500 350.7500 -82.0000 Du        
   2615 ****       251.2500 350.7500 -81.7500 Du        
   2616 ****       251.2500 350.7500 -81.5000 Du        
   2617 ****       251.2500 350.7500 -81.2500 Du        
   2618 ****       251.2500 350.7500 -81.0000 Du        
   2619 ****       251.2500 351.0000 -83.2500 Du        
   2620 ****       251.2500 351.0000 -83.0000 Du        
   2621 ****       251.2500 351.0000 -82.7500 Du        
   2622 ****       251.2500 351.0000 -82.5000 Du        
   2623 ****       251.2500 351.0000 -82.2500 Du        
   2624 ****       251.2500 351.0000 -82.0000 Du        
   2625 ****       251.2500 351.0000 -81.7500 Du        
   2626 ****       251.2500 351.0000 -81.5000 Du        
   2627 ****       251.2500 351.0000 -81.2500 Du        
   2628 ****       251.2500 351.0000 -81.0000 Du        
   2629 ****       251.2500 351.0000 -80.7500 Du        
   2630 ****       251.2500 351.2500 -82.2500 Du        
   2631 ****       251.2500 351.2500 -82.0000 Du        
   2632 ****       251.2500 351.2500 -81.7500 Du        
   2633 ****       251.2500 351.2500 -81.5000 Du        
   2634 ****       251.2500 351.2500 -81.2500 Du        
   2635 ****       251.2500 351.2500 -81.0000 Du        
   2636 ****       251.2500 351.2500 -80.7500 Du        
   2637 ****       251.2500 351.2500 -80.5000 Du        
   2638 ****       251.2500 351.5000 -81.7500 Du        
   2639 ****       251.2500 351.5000 -81.5000 Du        
   2640 ****       251.2500 351.5000 -81.2500 Du        
   2641 ****       251.2500 351.5000 -81.0000 Du        
   2642 ****       251.2500 351.5000 -80.7500 Du        
   2643 ****       251.2500 351.5000 -80.5000 Du        
   2644 ****       251.2500 351.5000 -80.2500 Du        
   2645 ****       251.2500 351.7500 -81.5000 Du        
   2646 ****       251.2500 351.7500 -81.2500 Du        
   2647 ****       251.2500 351.7500 -81.0000 Du        
   2648 ****       251.2500 351.7500 -80.7500 Du        
   2649 ****       251.2500 351.7500 -80.5000 Du        
   2650 ****       251.2500 351.7500 -80.2500 Du        
   2651 ****       251.2500 351.7500 -80.0000 Du        
   2652 ****       251.2500 352.0000 -81.0000 Du        
   2653 ****       251.2500 352.0000 -80.7500 Du        
   2654 ****       251.2500 352.0000 -80.5000 Du        
   2655 ****       251.2500 352.0000 -80.2500 Du        
   2656 ****       251.2500 352.7500 -88.0000 Du        
   2657 ****       251.5000 349.2500 -82.0000 Du        
   2658 ****       251.5000 349.2500 -81.7500 Du        
   2659 ****       251.5000 349.2500 -81.5000 Du        
   2660 ****       251.5000 349.5000 -82.2500 Du        
   2661 ****       251.5000 349.5000 -82.0000 Du        
   2662 ****       251.5000 349.5000 -81.7500 Du        
   2663 ****       251.5000 349.5000 -81.5000 Du        
   2664 ****       251.5000 349.5000 -81.2500 Du        
   2665 ****       251.5000 349.7500 -82.5000 Du        
   2666 ****       251.5000 349.7500 -82.2500 Du        
   2667 ****       251.5000 349.7500 -82.0000 Du        
   2668 ****       251.5000 349.7500 -81.7500 Du        
   2669 ****       251.5000 349.7500 -81.5000 Du        
   2670 ****       251.5000 349.7500 -81.2500 Du        
   2671 ****       251.5000 350.0000 -83.0000 Du        
   2672 ****       251.5000 350.0000 -82.7500 Du        
   2673 ****       251.5000 350.0000 -82.5000 Du        
   2674 ****       251.5000 350.0000 -82.2500 Du        
   2675 ****       251.5000 350.0000 -82.0000 Du        
   2676 ****       251.5000 350.0000 -81.7500 Du        
   2677 ****       251.5000 350.0000 -81.5000 Du        
   2678 ****       251.5000 350.0000 -81.2500 Du        
   2679 ****       251.5000 350.2500 -83.2500 Du        
   2680 ****       251.5000 350.2500 -83.0000 Du        
   2681 ****       251.5000 350.2500 -82.7500 Du        
   2682 ****       251.5000 350.2500 -82.5000 Du        
   2683 ****       251.5000 350.2500 -82.2500 Du        
   2684 ****       251.5000 350.2500 -82.0000 Du        
   2685 ****       251.5000 350.2500 -81.7500 Du        
   2686 ****       251.5000 350.2500 -81.5000 Du        
   2687 ****       251.5000 350.2500 -81.2500 Du        
   2688 ****       251.5000 350.5000 -83.7500 Du        
   2689 ****       251.5000 350.5000 -83.5000 Du        
   2690 ****       251.5000 350.5000 -83.2500 Du        
   2691 ****       251.5000 350.5000 -83.0000 Du        
   2692 ****       251.5000 350.5000 -82.7500 Du        
   2693 ****       251.5000 350.5000 -82.5000 Du        
   2694 ****       251.5000 350.5000 -82.2500 Du        
   2695 ****       251.5000 350.5000 -82.0000 Du        
   2696 ****       251.5000 350.5000 -81.7500 Du        
   2697 ****       251.5000 350.5000 -81.5000 Du        
   2698 ****       251.5000 350.5000 -81.2500 Du        
   2699 ****       251.5000 350.5000 -81.0000 Du        
   2700 ****       251.5000 350.7500 -83.5000 Du        
   2701 ****       251.5000 350.7500 -83.2500 Du        
   2702 ****       251.5000 350.7500 -83.0000 Du        
   2703 ****       251.5000 350.7500 -82.7500 Du        
   2704 ****       251.5000 350.7500 -82.5000 Du        
   2705 ****       251.5000 350.7500 -82.2500 Du        
   2706 ****       251.5000 350.7500 -82.0000 Du        
   2707 ****       251.5000 350.7500 -81.7500 Du        
   2708 ****       251.5000 350.7500 -81.5000 Du        
   2709 ****       251.5000 350.7500 -81.2500 Du        
   2710 ****       251.5000 350.7500 -81.0000 Du        
   2711 ****       251.5000 351.0000 -82.2500 Du        
   2712 ****       251.5000 351.0000 -82.0000 Du        
   2713 ****       251.5000 351.0000 -81.7500 Du        
   2714 ****       251.5000 351.0000 -81.5000 Du        
   2715 ****       251.5000 351.0000 -81.2500 Du        
   2716 ****       251.5000 351.0000 -81.0000 Du        
   2717 ****       251.5000 351.0000 -80.7500 Du        
   2718 ****       251.5000 351.2500 -81.7500 Du        
   2719 ****       251.5000 351.2500 -81.5000 Du        
   2720 ****       251.5000 351.2500 -81.2500 Du        
   2721 ****       251.5000 351.2500 -81.0000 Du        
   2722 ****       251.5000 351.2500 -80.7500 Du        
   2723 ****       251.5000 351.5000 -81.2500 Du        
   2724 ****       251.5000 351.5000 -81.0000 Du        
   2725 ****       251.5000 351.5000 -80.7500 Du        
   2726 ****       251.5000 351.5000 -80.5000 Du        
   2727 ****       251.5000 351.7500 -81.0000 Du        
   2728 ****       251.5000 351.7500 -80.7500 Du        
   2729 ****       251.5000 351.7500 -80.5000 Du        
   2730 ****       251.5000 351.7500 -80.2500 Du        
   2731 ****       251.5000 352.0000 -88.2500 Du        
   2732 ****       251.5000 352.0000 -88.0000 Du        
   2733 ****       251.5000 352.2500 -88.2500 Du        
   2734 ****       251.5000 352.2500 -88.0000 Du        
   2735 ****       251.5000 352.2500 -87.7500 Du        
   2736 ****       251.5000 352.5000 -88.5000 Du        
   2737 ****       251.5000 352.5000 -88.2500 Du        
   2738 ****       251.5000 352.5000 -88.0000 Du        
   2739 ****       251.5000 352.5000 -87.7500 Du        
   2740 ****       251.5000 352.7500 -88.5000 Du        
   2741 ****       251.5000 352.7500 -88.2500 Du        
   2742 ****       251.5000 352.7500 -88.0000 Du        
   2743 ****       251.5000 352.7500 -87.7500 Du        
   2744 ****       251.5000 352.7500 -87.5000 Du        
   2745 ****       251.5000 353.0000 -88.5000 Du        
   2746 ****       251.5000 353.0000 -88.2500 Du        
   2747 ****       251.5000 353.0000 -88.0000 Du        
   2748 ****       251.5000 353.0000 -87.7500 Du        
   2749 ****       251.5000 353.2500 -88.2500 Du        
   2750 ****       251.5000 353.2500 -88.0000 Du        
   2751 ****       251.7500 349.0000 -81.7500 Du        
   2752 ****       251.7500 349.2500 -82.0000 Du        
   2753 ****       251.7500 349.2500 -81.7500 Du        
   2754 ****       251.7500 349.2500 -81.5000 Du        
   2755 ****       251.7500 349.5000 -82.2500 Du        
   2756 ****       251.7500 349.5000 -82.0000 Du        
   2757 ****       251.7500 349.5000 -81.7500 Du        
   2758 ****       251.7500 349.5000 -81.5000 Du        
   2759 ****       251.7500 349.5000 -81.2500 Du        
   2760 ****       251.7500 349.7500 -82.7500 Du        
   2761 ****       251.7500 349.7500 -82.5000 Du        
   2762 ****       251.7500 349.7500 -82.2500 Du        
   2763 ****       251.7500 349.7500 -82.0000 Du        
   2764 ****       251.7500 349.7500 -81.7500 Du        
   2765 ****       251.7500 349.7500 -81.5000 Du        
   2766 ****       251.7500 349.7500 -81.2500 Du        
   2767 ****       251.7500 350.0000 -83.0000 Du        
   2768 ****       251.7500 350.0000 -82.7500 Du        
   2769 ****       251.7500 350.0000 -82.5000 Du        
   2770 ****       251.7500 350.0000 -82.2500 Du        
   2771 ****       251.7500 350.0000 -82.0000 Du        
   2772 ****       251.7500 350.0000 -81.7500 Du        
   2773 ****       251.7500 350.0000 -81.5000 Du        
   2774 ****       251.7500 350.0000 -81.2500 Du        
   2775 ****       251.7500 350.2500 -83.5000 Du        
   2776 ****       251.7500 350.2500 -83.2500 Du        
   2777 ****       251.7500 350.2500 -83.0000 Du        
   2778 ****       251.7500 350.2500 -82.7500 Du        
   2779 ****       251.7500 350.2500 -82.5000 Du        
   2780 ****       251.7500 350.2500 -82.2500 Du        
   2781 ****       251.7500 350.2500 -82.0000 Du        
   2782 ****       251.7500 350.2500 -81.7500 Du        
   2783 ****       251.7500 350.2500 -81.5000 Du        
   2784 ****       251.7500 350.2500 -81.2500 Du        
   2785 ****       251.7500 350.5000 -83.7500 Du        
   2786 ****       251.7500 350.5000 -83.5000 Du        
   2787 ****       251.7500 350.5000 -83.2500 Du        
   2788 ****       251.7500 350.5000 -83.0000 Du        
   2789 ****       251.7500 350.5000 -82.7500 Du        
   2790 ****       251.7500 350.5000 -82.5000 Du        
   2791 ****       251.7500 350.5000 -82.2500 Du        
   2792 ****       251.7500 350.5000 -82.0000 Du        
   2793 ****       251.7500 350.5000 -81.7500 Du        
   2794 ****       251.7500 350.5000 -81.5000 Du        
   2795 ****       251.7500 350.5000 -81.2500 Du        
   2796 ****       251.7500 350.7500 -82.7500 Du        
   2797 ****       251.7500 350.7500 -82.5000 Du        
   2798 ****       251.7500 350.7500 -82.2500 Du        
   2799 ****       251.7500 350.7500 -82.0000 Du        
   2800 ****       251.7500 350.7500 -81.7500 Du        
   2801 ****       251.7500 350.7500 -81.5000 Du        
   2802 ****       251.7500 350.7500 -81.2500 Du        
   2803 ****       251.7500 350.7500 -81.0000 Du        
   2804 ****       251.7500 351.0000 -82.0000 Du        
   2805 ****       251.7500 351.0000 -81.7500 Du        
   2806 ****       251.7500 351.0000 -81.5000 Du        
   2807 ****       251.7500 351.0000 -81.2500 Du        
   2808 ****       251.7500 351.0000 -81.0000 Du        
   2809 ****       251.7500 351.2500 -81.5000 Du        
   2810 ****       251.7500 351.2500 -81.2500 Du        
   2811 ****       251.7500 351.2500 -81.0000 Du        
   2812 ****       251.7500 351.2500 -80.7500 Du        
   2813 ****       251.7500 351.5000 -80.7500 Du        
   2814 ****       251.7500 351.7500 -88.5000 Du        
   2815 ****       251.7500 351.7500 -88.2500 Du        
   2816 ****       251.7500 351.7500 -88.0000 Du        
   2817 ****       251.7500 352.0000 -88.5000 Du        
   2818 ****       251.7500 352.0000 -88.2500 Du        
   2819 ****       251.7500 352.0000 -88.0000 Du        
   2820 ****       251.7500 352.0000 -87.7500 Du        
   2821 ****       251.7500 352.2500 -88.7500 Du        
   2822 ****       251.7500 352.2500 -88.5000 Du        
   2823 ****       251.7500 352.2500 -88.2500 Du        
   2824 ****       251.7500 352.2500 -88.0000 Du        
   2825 ****       251.7500 352.2500 -87.7500 Du        
   2826 ****       251.7500 352.2500 -87.5000 Du        
   2827 ****       251.7500 352.5000 -88.7500 Du        
   2828 ****       251.7500 352.5000 -88.5000 Du        
   2829 ****       251.7500 352.5000 -88.2500 Du        
   2830 ****       251.7500 352.5000 -88.0000 Du        
   2831 ****       251.7500 352.5000 -87.7500 Du        
   2832 ****       251.7500 352.5000 -87.5000 Du        
   2833 ****       251.7500 352.5000 -87.2500 Du        
   2834 ****       251.7500 352.7500 -88.7500 Du        
   2835 ****       251.7500 352.7500 -88.5000 Du        
   2836 ****       251.7500 352.7500 -88.2500 Du        
   2837 ****       251.7500 352.7500 -88.0000 Du        
   2838 ****       251.7500 352.7500 -87.7500 Du        
   2839 ****       251.7500 352.7500 -87.5000 Du        
   2840 ****       251.7500 353.0000 -88.7500 Du        
   2841 ****       251.7500 353.0000 -88.5000 Du        
   2842 ****       251.7500 353.0000 -88.2500 Du        
   2843 ****       251.7500 353.0000 -88.0000 Du        
   2844 ****       251.7500 353.0000 -87.7500 Du        
   2845 ****       251.7500 353.0000 -87.5000 Du        
   2846 ****       251.7500 353.2500 -88.7500 Du        
   2847 ****       251.7500 353.2500 -88.5000 Du        
   2848 ****       251.7500 353.2500 -88.2500 Du        
   2849 ****       251.7500 353.2500 -88.0000 Du        
   2850 ****       251.7500 353.2500 -87.7500 Du        
   2851 ****       251.7500 353.5000 -88.5000 Du        
   2852 ****       251.7500 353.5000 -88.2500 Du        
   2853 ****       251.7500 353.5000 -88.0000 Du        
   2854 ****       252.0000 349.0000 -82.0000 Du        
   2855 ****       252.0000 349.0000 -81.7500 Du        
   2856 ****       252.0000 349.0000 -81.5000 Du        
   2857 ****       252.0000 349.2500 -82.2500 Du        
   2858 ****       252.0000 349.2500 -82.0000 Du        
   2859 ****       252.0000 349.2500 -81.7500 Du        
   2860 ****       252.0000 349.2500 -81.5000 Du        
   2861 ****       252.0000 349.5000 -82.5000 Du        
   2862 ****       252.0000 349.5000 -82.2500 Du        
   2863 ****       252.0000 349.5000 -82.0000 Du        
   2864 ****       252.0000 349.5000 -81.7500 Du        
   2865 ****       252.0000 349.5000 -81.5000 Du        
   2866 ****       252.0000 349.5000 -81.2500 Du        
   2867 ****       252.0000 349.7500 -82.7500 Du        
   2868 ****       252.0000 349.7500 -82.5000 Du        
   2869 ****       252.0000 349.7500 -82.2500 Du        
   2870 ****       252.0000 349.7500 -82.0000 Du        
   2871 ****       252.0000 349.7500 -81.7500 Du        
   2872 ****       252.0000 349.7500 -81.5000 Du        
   2873 ****       252.0000 349.7500 -81.2500 Du        
   2874 ****       252.0000 350.0000 -83.0000 Du        
   2875 ****       252.0000 350.0000 -82.7500 Du        
   2876 ****       252.0000 350.0000 -82.5000 Du        
   2877 ****       252.0000 350.0000 -82.2500 Du        
   2878 ****       252.0000 350.0000 -82.0000 Du        
   2879 ****       252.0000 350.0000 -81.7500 Du        
   2880 ****       252.0000 350.0000 -81.5000 Du        
   2881 ****       252.0000 350.0000 -81.2500 Du        
   2882 ****       252.0000 350.2500 -83.2500 Du        
   2883 ****       252.0000 350.2500 -83.0000 Du        
   2884 ****       252.0000 350.2500 -82.7500 Du        
   2885 ****       252.0000 350.2500 -82.5000 Du        
   2886 ****       252.0000 350.2500 -82.2500 Du        
   2887 ****       252.0000 350.2500 -82.0000 Du        
   2888 ****       252.0000 350.2500 -81.7500 Du        
   2889 ****       252.0000 350.2500 -81.5000 Du        
   2890 ****       252.0000 350.2500 -81.2500 Du        
   2891 ****       252.0000 350.5000 -83.5000 Du        
   2892 ****       252.0000 350.5000 -83.2500 Du        
   2893 ****       252.0000 350.5000 -83.0000 Du        
   2894 ****       252.0000 350.5000 -82.7500 Du        
   2895 ****       252.0000 350.5000 -82.5000 Du        
   2896 ****       252.0000 350.5000 -82.2500 Du        
   2897 ****       252.0000 350.5000 -82.0000 Du        
   2898 ****       252.0000 350.5000 -81.7500 Du        
   2899 ****       252.0000 350.5000 -81.5000 Du        
   2900 ****       252.0000 350.5000 -81.2500 Du        
   2901 ****       252.0000 350.7500 -82.2500 Du        
   2902 ****       252.0000 350.7500 -82.0000 Du        
   2903 ****       252.0000 350.7500 -81.7500 Du        
   2904 ****       252.0000 350.7500 -81.5000 Du        
   2905 ****       252.0000 350.7500 -81.2500 Du        
   2906 ****       252.0000 350.7500 -81.0000 Du        
   2907 ****       252.0000 351.0000 -81.7500 Du        
   2908 ****       252.0000 351.0000 -81.5000 Du        
   2909 ****       252.0000 351.0000 -81.2500 Du        
   2910 ****       252.0000 351.0000 -81.0000 Du        
   2911 ****       252.0000 351.7500 -88.7500 Du        
   2912 ****       252.0000 351.7500 -88.5000 Du        
   2913 ****       252.0000 351.7500 -88.2500 Du        
   2914 ****       252.0000 351.7500 -88.0000 Du        
   2915 ****       252.0000 352.0000 -88.7500 Du        
   2916 ****       252.0000 352.0000 -88.5000 Du        
   2917 ****       252.0000 352.0000 -88.2500 Du        
   2918 ****       252.0000 352.0000 -88.0000 Du        
   2919 ****       252.0000 352.0000 -87.7500 Du        
   2920 ****       252.0000 352.0000 -87.5000 Du        
   2921 ****       252.0000 352.0000 -87.2500 Du        
   2922 ****       252.0000 352.2500 -88.7500 Du        
   2923 ****       252.0000 352.2500 -88.5000 Du        
   2924 ****       252.0000 352.2500 -88.2500 Du        
   2925 ****       252.0000 352.2500 -88.0000 Du        
   2926 ****       252.0000 352.2500 -87.7500 Du        
   2927 ****       252.0000 352.2500 -87.5000 Du        
   2928 ****       252.0000 352.2500 -87.2500 Du        
   2929 ****       252.0000 352.2500 -87.0000 Du        
   2930 ****       252.0000 352.5000 -89.0000 Du        
   2931 ****       252.0000 352.5000 -88.7500 Du        
   2932 ****       252.0000 352.5000 -88.5000 Du        
   2933 ****       252.0000 352.5000 -88.2500 Du        
   2934 ****       252.0000 352.5000 -88.0000 Du        
   2935 ****       252.0000 352.5000 -87.7500 Du        
   2936 ****       252.0000 352.5000 -87.5000 Du        
   2937 ****       252.0000 352.5000 -87.2500 Du        
   2938 ****       252.0000 352.7500 -89.0000 Du        
   2939 ****       252.0000 352.7500 -88.7500 Du        
   2940 ****       252.0000 352.7500 -88.5000 Du        
   2941 ****       252.0000 352.7500 -88.2500 Du        
   2942 ****       252.0000 352.7500 -88.0000 Du        
   2943 ****       252.0000 352.7500 -87.7500 Du        
   2944 ****       252.0000 352.7500 -87.5000 Du        
   2945 ****       252.0000 352.7500 -87.2500 Du        
   2946 ****       252.0000 353.0000 -89.0000 Du        
   2947 ****       252.0000 353.0000 -88.7500 Du        
   2948 ****       252.0000 353.0000 -88.5000 Du        
   2949 ****       252.0000 353.0000 -88.2500 Du        
   2950 ****       252.0000 353.0000 -88.0000 Du        
   2951 ****       252.0000 353.0000 -87.7500 Du        
   2952 ****       252.0000 353.0000 -87.5000 Du        
   2953 ****       252.0000 353.2500 -89.0000 Du        
   2954 ****       252.0000 353.2500 -88.7500 Du        
   2955 ****       252.0000 353.2500 -88.5000 Du        
   2956 ****       252.0000 353.2500 -88.2500 Du        
   2957 ****       252.0000 353.2500 -88.0000 Du        
   2958 ****       252.0000 353.2500 -87.7500 Du        
   2959 ****       252.0000 353.5000 -88.7500 Du        
   2960 ****       252.0000 353.5000 -88.5000 Du        
   2961 ****       252.0000 353.5000 -88.2500 Du        
   2962 ****       252.0000 353.5000 -88.0000 Du        
   2963 ****       252.2500 348.7500 -82.0000 Du        
   2964 ****       252.2500 349.0000 -82.2500 Du        
   2965 ****       252.2500 349.0000 -82.0000 Du        
   2966 ****       252.2500 349.0000 -81.7500 Du        
   2967 ****       252.2500 349.0000 -81.5000 Du        
   2968 ****       252.2500 349.2500 -82.5000 Du        
   2969 ****       252.2500 349.2500 -82.2500 Du        
   2970 ****       252.2500 349.2500 -82.0000 Du        
   2971 ****       252.2500 349.2500 -81.7500 Du        
   2972 ****       252.2500 349.2500 -81.5000 Du        
   2973 ****       252.2500 349.5000 -82.7500 Du        
   2974 ****       252.2500 349.5000 -82.5000 Du        
   2975 ****       252.2500 349.5000 -82.2500 Du        
   2976 ****       252.2500 349.5000 -82.0000 Du        
   2977 ****       252.2500 349.5000 -81.7500 Du        
   2978 ****       252.2500 349.5000 -81.5000 Du        
   2979 ****       252.2500 349.5000 -81.2500 Du        
   2980 ****       252.2500 349.7500 -82.7500 Du        
   2981 ****       252.2500 349.7500 -82.5000 Du        
   2982 ****       252.2500 349.7500 -82.2500 Du        
   2983 ****       252.2500 349.7500 -82.0000 Du        
   2984 ****       252.2500 349.7500 -81.7500 Du        
   2985 ****       252.2500 349.7500 -81.5000 Du        
   2986 ****       252.2500 349.7500 -81.2500 Du        
   2987 ****       252.2500 350.0000 -83.0000 Du        
   2988 ****       252.2500 350.0000 -82.7500 Du        
   2989 ****       252.2500 350.0000 -82.5000 Du        
   2990 ****       252.2500 350.0000 -82.2500 Du        
   2991 ****       252.2500 350.0000 -82.0000 Du        
   2992 ****       252.2500 350.0000 -81.7500 Du        
   2993 ****       252.2500 350.0000 -81.5000 Du        
   2994 ****       252.2500 350.0000 -81.2500 Du        
   2995 ****       252.2500 350.2500 -83.2500 Du        
   2996 ****       252.2500 350.2500 -83.0000 Du        
   2997 ****       252.2500 350.2500 -82.7500 Du        
   2998 ****       252.2500 350.2500 -82.5000 Du        
   2999 ****       252.2500 350.2500 -82.2500 Du        
   3000 ****       252.2500 350.2500 -82.0000 Du        
   3001 ****       252.2500 350.2500 -81.7500 Du        
   3002 ****       252.2500 350.2500 -81.5000 Du        
   3003 ****       252.2500 350.2500 -81.2500 Du        
   3004 ****       252.2500 350.5000 -82.7500 Du        
   3005 ****       252.2500 350.5000 -82.5000 Du        
   3006 ****       252.2500 350.5000 -82.2500 Du        
   3007 ****       252.2500 350.5000 -82.0000 Du        
   3008 ****       252.2500 350.5000 -81.7500 Du        
   3009 ****       252.2500 350.5000 -81.5000 Du        
   3010 ****       252.2500 350.5000 -81.2500 Du        
   3011 ****       252.2500 350.7500 -82.0000 Du        
   3012 ****       252.2500 350.7500 -81.7500 Du        
   3013 ****       252.2500 350.7500 -81.5000 Du        
   3014 ****       252.2500 350.7500 -81.2500 Du        
   3015 ****       252.2500 351.0000 -81.5000 Du        
   3016 ****       252.2500 351.0000 -81.2500 Du        
   3017 ****       252.2500 351.7500 -89.0000 Du        
   3018 ****       252.2500 351.7500 -88.7500 Du        
   3019 ****       252.2500 351.7500 -88.5000 Du        
   3020 ****       252.2500 351.7500 -88.2500 Du        
   3021 ****       252.2500 351.7500 -88.0000 Du        
   3022 ****       252.2500 352.0000 -89.0000 Du        
   3023 ****       252.2500 352.0000 -88.7500 Du        
   3024 ****       252.2500 352.0000 -88.5000 Du        
   3025 ****       252.2500 352.0000 -88.2500 Du        
   3026 ****       252.2500 352.0000 -88.0000 Du        
   3027 ****       252.2500 352.0000 -87.7500 Du        
   3028 ****       252.2500 352.0000 -87.5000 Du        
   3029 ****       252.2500 352.0000 -87.2500 Du        
   3030 ****       252.2500 352.0000 -87.0000 Du        
   3031 ****       252.2500 352.0000 -86.7500 Du        
   3032 ****       252.2500 352.2500 -89.0000 Du        
   3033 ****       252.2500 352.2500 -88.7500 Du        
   3034 ****       252.2500 352.2500 -88.5000 Du        
   3035 ****       252.2500 352.2500 -88.2500 Du        
   3036 ****       252.2500 352.2500 -88.0000 Du        
   3037 ****       252.2500 352.2500 -87.7500 Du        
   3038 ****       252.2500 352.2500 -87.5000 Du        
   3039 ****       252.2500 352.2500 -87.2500 Du        
   3040 ****       252.2500 352.2500 -87.0000 Du        
   3041 ****       252.2500 352.5000 -89.0000 Du        
   3042 ****       252.2500 352.5000 -88.7500 Du        
   3043 ****       252.2500 352.5000 -88.5000 Du        
   3044 ****       252.2500 352.5000 -88.2500 Du        
   3045 ****       252.2500 352.5000 -88.0000 Du        
   3046 ****       252.2500 352.5000 -87.7500 Du        
   3047 ****       252.2500 352.5000 -87.5000 Du        
   3048 ****       252.2500 352.5000 -87.2500 Du        
   3049 ****       252.2500 352.5000 -87.0000 Du        
   3050 ****       252.2500 352.7500 -89.0000 Du        
   3051 ****       252.2500 352.7500 -88.7500 Du        
   3052 ****       252.2500 352.7500 -88.5000 Du        
   3053 ****       252.2500 352.7500 -88.2500 Du        
   3054 ****       252.2500 352.7500 -88.0000 Du        
   3055 ****       252.2500 352.7500 -87.7500 Du        
   3056 ****       252.2500 352.7500 -87.5000 Du        
   3057 ****       252.2500 352.7500 -87.2500 Du        
   3058 ****       252.2500 353.0000 -89.0000 Du        
   3059 ****       252.2500 353.0000 -88.7500 Du        
   3060 ****       252.2500 353.0000 -88.5000 Du        
   3061 ****       252.2500 353.0000 -88.2500 Du        
   3062 ****       252.2500 353.0000 -88.0000 Du        
   3063 ****       252.2500 353.0000 -87.7500 Du        
   3064 ****       252.2500 353.0000 -87.5000 Du        
   3065 ****       252.2500 353.2500 -89.0000 Du        
   3066 ****       252.2500 353.2500 -88.7500 Du        
   3067 ****       252.2500 353.2500 -88.5000 Du        
   3068 ****       252.2500 353.2500 -88.2500 Du        
   3069 ****       252.2500 353.2500 -88.0000 Du        
   3070 ****       252.2500 353.2500 -87.7500 Du        
   3071 ****       252.2500 353.5000 -88.7500 Du        
   3072 ****       252.2500 353.5000 -88.5000 Du        
   3073 ****       252.2500 353.5000 -88.2500 Du        
   3074 ****       252.2500 353.5000 -88.0000 Du        
   3075 ****       252.5000 348.7500 -82.2500 Du        
   3076 ****       252.5000 348.7500 -82.0000 Du        
   3077 ****       252.5000 348.7500 -81.7500 Du        
   3078 ****       252.5000 349.0000 -82.5000 Du        
   3079 ****       252.5000 349.0000 -82.2500 Du        
   3080 ****       252.5000 349.0000 -82.0000 Du        
   3081 ****       252.5000 349.0000 -81.7500 Du        
   3082 ****       252.5000 349.0000 -81.5000 Du        
   3083 ****       252.5000 349.2500 -82.5000 Du        
   3084 ****       252.5000 349.2500 -82.2500 Du        
   3085 ****       252.5000 349.2500 -82.0000 Du        
   3086 ****       252.5000 349.2500 -81.7500 Du        
   3087 ****       252.5000 349.2500 -81.5000 Du        
   3088 ****       252.5000 349.2500 -81.2500 Du        
   3089 ****       252.5000 349.5000 -82.7500 Du        
   3090 ****       252.5000 349.5000 -82.5000 Du        
   3091 ****       252.5000 349.5000 -82.2500 Du        
   3092 ****       252.5000 349.5000 -82.0000 Du        
   3093 ****       252.5000 349.5000 -81.7500 Du        
   3094 ****       252.5000 349.5000 -81.5000 Du        
   3095 ****       252.5000 349.5000 -81.2500 Du        
   3096 ****       252.5000 349.7500 -82.7500 Du        
   3097 ****       252.5000 349.7500 -82.5000 Du        
   3098 ****       252.5000 349.7500 -82.2500 Du        
   3099 ****       252.5000 349.7500 -82.0000 Du        
   3100 ****       252.5000 349.7500 -81.7500 Du        
   3101 ****       252.5000 349.7500 -81.5000 Du        
   3102 ****       252.5000 349.7500 -81.2500 Du        
   3103 ****       252.5000 350.0000 -83.0000 Du        
   3104 ****       252.5000 350.0000 -82.7500 Du        
   3105 ****       252.5000 350.0000 -82.5000 Du        
   3106 ****       252.5000 350.0000 -82.2500 Du        
   3107 ****       252.5000 350.0000 -82.0000 Du        
   3108 ****       252.5000 350.0000 -81.7500 Du        
   3109 ****       252.5000 350.0000 -81.5000 Du        
   3110 ****       252.5000 350.0000 -81.2500 Du        
   3111 ****       252.5000 350.2500 -83.2500 Du        
   3112 ****       252.5000 350.2500 -83.0000 Du        
   3113 ****       252.5000 350.2500 -82.7500 Du        
   3114 ****       252.5000 350.2500 -82.5000 Du        
   3115 ****       252.5000 350.2500 -82.2500 Du        
   3116 ****       252.5000 350.2500 -82.0000 Du        
   3117 ****       252.5000 350.2500 -81.7500 Du        
   3118 ****       252.5000 350.2500 -81.5000 Du        
   3119 ****       252.5000 350.2500 -81.2500 Du        
   3120 ****       252.5000 350.5000 -82.2500 Du        
   3121 ****       252.5000 350.5000 -82.0000 Du        
   3122 ****       252.5000 350.5000 -81.7500 Du        
   3123 ****       252.5000 350.5000 -81.5000 Du        
   3124 ****       252.5000 350.5000 -81.2500 Du        
   3125 ****       252.5000 350.7500 -81.7500 Du        
   3126 ****       252.5000 350.7500 -81.5000 Du        
   3127 ****       252.5000 350.7500 -81.2500 Du        
   3128 ****       252.5000 351.7500 -89.0000 Du        
   3129 ****       252.5000 351.7500 -88.7500 Du        
   3130 ****       252.5000 351.7500 -88.5000 Du        
   3131 ****       252.5000 352.0000 -89.0000 Du        
   3132 ****       252.5000 352.0000 -88.7500 Du        
   3133 ****       252.5000 352.0000 -88.5000 Du        
   3134 ****       252.5000 352.0000 -88.2500 Du        
   3135 ****       252.5000 352.0000 -88.0000 Du        
   3136 ****       252.5000 352.0000 -87.7500 Du        
   3137 ****       252.5000 352.0000 -87.5000 Du        
   3138 ****       252.5000 352.0000 -87.2500 Du        
   3139 ****       252.5000 352.0000 -87.0000 Du        
   3140 ****       252.5000 352.0000 -86.7500 Du        
   3141 ****       252.5000 352.2500 -89.0000 Du        
   3142 ****       252.5000 352.2500 -88.7500 Du        
   3143 ****       252.5000 352.2500 -88.5000 Du        
   3144 ****       252.5000 352.2500 -88.2500 Du        
   3145 ****       252.5000 352.2500 -88.0000 Du        
   3146 ****       252.5000 352.2500 -87.7500 Du        
   3147 ****       252.5000 352.2500 -87.5000 Du        
   3148 ****       252.5000 352.2500 -87.2500 Du        
   3149 ****       252.5000 352.2500 -87.0000 Du        
   3150 ****       252.5000 352.2500 -86.7500 Du        
   3151 ****       252.5000 352.5000 -89.2500 Du        
   3152 ****       252.5000 352.5000 -89.0000 Du        
   3153 ****       252.5000 352.5000 -88.7500 Du        
   3154 ****       252.5000 352.5000 -88.5000 Du        
   3155 ****       252.5000 352.5000 -88.2500 Du        
   3156 ****       252.5000 352.5000 -88.0000 Du        
   3157 ****       252.5000 352.5000 -87.7500 Du        
   3158 ****       252.5000 352.5000 -87.5000 Du        
   3159 ****       252.5000 352.5000 -87.2500 Du        
   3160 ****       252.5000 352.5000 -87.0000 Du        
   3161 ****       252.5000 352.7500 -89.2500 Du        
   3162 ****       252.5000 352.7500 -89.0000 Du        
   3163 ****       252.5000 352.7500 -88.7500 Du        
   3164 ****       252.5000 352.7500 -88.5000 Du        
   3165 ****       252.5000 352.7500 -88.2500 Du        
   3166 ****       252.5000 352.7500 -88.0000 Du        
   3167 ****       252.5000 352.7500 -87.7500 Du        
   3168 ****       252.5000 352.7500 -87.5000 Du        
   3169 ****       252.5000 352.7500 -87.2500 Du        
   3170 ****       252.5000 353.0000 -89.0000 Du        
   3171 ****       252.5000 353.0000 -88.7500 Du        
   3172 ****       252.5000 353.0000 -88.5000 Du        
   3173 ****       252.5000 353.0000 -88.2500 Du        
   3174 ****       252.5000 353.0000 -88.0000 Du        
   3175 ****       252.5000 353.0000 -87.7500 Du        
   3176 ****       252.5000 353.0000 -87.5000 Du        
   3177 ****       252.5000 353.2500 -88.7500 Du        
   3178 ****       252.5000 353.2500 -88.5000 Du        
   3179 ****       252.5000 353.2500 -88.2500 Du        
   3180 ****       252.5000 353.2500 -88.0000 Du        
   3181 ****       252.5000 353.2500 -87.7500 Du        
   3182 ****       252.5000 353.5000 -88.2500 Du        
   3183 ****       252.7500 348.5000 -82.0000 Du        
   3184 ****       252.7500 348.7500 -82.2500 Du        
   3185 ****       252.7500 348.7500 -82.0000 Du        
   3186 ****       252.7500 348.7500 -81.7500 Du        
   3187 ****       252.7500 348.7500 -81.5000 Du        
   3188 ****       252.7500 349.0000 -82.5000 Du        
   3189 ****       252.7500 349.0000 -82.2500 Du        
   3190 ****       252.7500 349.0000 -82.0000 Du        
   3191 ****       252.7500 349.0000 -81.7500 Du        
   3192 ****       252.7500 349.0000 -81.5000 Du        
   3193 ****       252.7500 349.0000 -81.2500 Du        
   3194 ****       252.7500 349.2500 -82.5000 Du        
   3195 ****       252.7500 349.2500 -82.2500 Du        
   3196 ****       252.7500 349.2500 -82.0000 Du        
   3197 ****       252.7500 349.2500 -81.7500 Du        
   3198 ****       252.7500 349.2500 -81.5000 Du        
   3199 ****       252.7500 349.2500 -81.2500 Du        
   3200 ****       252.7500 349.5000 -82.7500 Du        
   3201 ****       252.7500 349.5000 -82.5000 Du        
   3202 ****       252.7500 349.5000 -82.2500 Du        
   3203 ****       252.7500 349.5000 -82.0000 Du        
   3204 ****       252.7500 349.5000 -81.7500 Du        
   3205 ****       252.7500 349.5000 -81.5000 Du        
   3206 ****       252.7500 349.5000 -81.2500 Du        
   3207 ****       252.7500 349.7500 -82.7500 Du        
   3208 ****       252.7500 349.7500 -82.5000 Du        
   3209 ****       252.7500 349.7500 -82.2500 Du        
   3210 ****       252.7500 349.7500 -82.0000 Du        
   3211 ****       252.7500 349.7500 -81.7500 Du        
   3212 ****       252.7500 349.7500 -81.5000 Du        
   3213 ****       252.7500 349.7500 -81.2500 Du        
   3214 ****       252.7500 350.0000 -83.0000 Du        
   3215 ****       252.7500 350.0000 -82.7500 Du        
   3216 ****       252.7500 350.0000 -82.5000 Du        
   3217 ****       252.7500 350.0000 -82.2500 Du        
   3218 ****       252.7500 350.0000 -82.0000 Du        
   3219 ****       252.7500 350.0000 -81.7500 Du        
   3220 ****       252.7500 350.0000 -81.5000 Du        
   3221 ****       252.7500 350.0000 -81.2500 Du        
   3222 ****       252.7500 350.2500 -83.0000 Du        
   3223 ****       252.7500 350.2500 -82.7500 Du        
   3224 ****       252.7500 350.2500 -82.5000 Du        
   3225 ****       252.7500 350.2500 -82.2500 Du        
   3226 ****       252.7500 350.2500 -82.0000 Du        
   3227 ****       252.7500 350.2500 -81.7500 Du        
   3228 ****       252.7500 350.2500 -81.5000 Du        
   3229 ****       252.7500 350.2500 -81.2500 Du        
   3230 ****       252.7500 350.5000 -82.2500 Du        
   3231 ****       252.7500 350.5000 -82.0000 Du        
   3232 ****       252.7500 350.5000 -81.7500 Du        
   3233 ****       252.7500 350.5000 -81.5000 Du        
   3234 ****       252.7500 350.5000 -81.2500 Du        
   3235 ****       252.7500 350.7500 -81.7500 Du        
   3236 ****       252.7500 350.7500 -81.5000 Du        
   3237 ****       252.7500 350.7500 -81.2500 Du        
   3238 ****       252.7500 351.7500 -89.0000 Du        
   3239 ****       252.7500 351.7500 -88.7500 Du        
   3240 ****       252.7500 351.7500 -88.5000 Du        
   3241 ****       252.7500 352.0000 -89.2500 Du        
   3242 ****       252.7500 352.0000 -89.0000 Du        
   3243 ****       252.7500 352.0000 -88.7500 Du        
   3244 ****       252.7500 352.0000 -88.5000 Du        
   3245 ****       252.7500 352.0000 -88.2500 Du        
   3246 ****       252.7500 352.0000 -88.0000 Du        
   3247 ****       252.7500 352.0000 -87.7500 Du        
   3248 ****       252.7500 352.0000 -87.5000 Du        
   3249 ****       252.7500 352.0000 -87.2500 Du        
   3250 ****       252.7500 352.0000 -87.0000 Du        
   3251 ****       252.7500 352.0000 -86.7500 Du        
   3252 ****       252.7500 352.0000 -86.5000 Du        
   3253 ****       252.7500 352.2500 -89.2500 Du        
   3254 ****       252.7500 352.2500 -89.0000 Du        
   3255 ****       252.7500 352.2500 -88.7500 Du        
   3256 ****       252.7500 352.2500 -88.5000 Du        
   3257 ****       252.7500 352.2500 -88.2500 Du        
   3258 ****       252.7500 352.2500 -88.0000 Du        
   3259 ****       252.7500 352.2500 -87.7500 Du        
   3260 ****       252.7500 352.2500 -87.5000 Du        
   3261 ****       252.7500 352.2500 -87.2500 Du        
   3262 ****       252.7500 352.2500 -87.0000 Du        
   3263 ****       252.7500 352.2500 -86.7500 Du        
   3264 ****       252.7500 352.5000 -89.2500 Du        
   3265 ****       252.7500 352.5000 -89.0000 Du        
   3266 ****       252.7500 352.5000 -88.7500 Du        
   3267 ****       252.7500 352.5000 -88.5000 Du        
   3268 ****       252.7500 352.5000 -88.2500 Du        
   3269 ****       252.7500 352.5000 -88.0000 Du        
   3270 ****       252.7500 352.5000 -87.7500 Du        
   3271 ****       252.7500 352.5000 -87.5000 Du        
   3272 ****       252.7500 352.5000 -87.2500 Du        
   3273 ****       252.7500 352.5000 -87.0000 Du        
   3274 ****       252.7500 352.7500 -89.2500 Du        
   3275 ****       252.7500 352.7500 -89.0000 Du        
   3276 ****       252.7500 352.7500 -88.7500 Du        
   3277 ****       252.7500 352.7500 -88.5000 Du        
   3278 ****       252.7500 352.7500 -88.2500 Du        
   3279 ****       252.7500 352.7500 -88.0000 Du        
   3280 ****       252.7500 352.7500 -87.7500 Du        
   3281 ****       252.7500 352.7500 -87.5000 Du        
   3282 ****       252.7500 352.7500 -87.2500 Du        
   3283 ****       252.7500 353.0000 -89.2500 Du        
   3284 ****       252.7500 353.0000 -89.0000 Du        
   3285 ****       252.7500 353.0000 -88.7500 Du        
   3286 ****       252.7500 353.0000 -88.5000 Du        
   3287 ****       252.7500 353.0000 -88.2500 Du        
   3288 ****       252.7500 353.0000 -88.0000 Du        
   3289 ****       252.7500 353.0000 -87.7500 Du        
   3290 ****       252.7500 353.0000 -87.5000 Du        
   3291 ****       252.7500 353.2500 -88.7500 Du        
   3292 ****       252.7500 353.2500 -88.5000 Du        
   3293 ****       252.7500 353.2500 -88.2500 Du        
   3294 ****       252.7500 353.2500 -88.0000 Du        
   3295 ****       252.7500 353.2500 -87.7500 Du        
   3296 ****       253.0000 348.5000 -82.0000 Du        
   3297 ****       253.0000 348.5000 -81.7500 Du        
   3298 ****       253.0000 348.7500 -82.2500 Du        
   3299 ****       253.0000 348.7500 -82.0000 Du        
   3300 ****       253.0000 348.7500 -81.7500 Du        
   3301 ****       253.0000 348.7500 -81.5000 Du        
   3302 ****       253.0000 348.7500 -81.2500 Du        
   3303 ****       253.0000 349.0000 -82.5000 Du        
   3304 ****       253.0000 349.0000 -82.2500 Du        
   3305 ****       253.0000 349.0000 -82.0000 Du        
   3306 ****       253.0000 349.0000 -81.7500 Du        
   3307 ****       253.0000 349.0000 -81.5000 Du        
   3308 ****       253.0000 349.0000 -81.2500 Du        
   3309 ****       253.0000 349.2500 -82.5000 Du        
   3310 ****       253.0000 349.2500 -82.2500 Du        
   3311 ****       253.0000 349.2500 -82.0000 Du        
   3312 ****       253.0000 349.2500 -81.7500 Du        
   3313 ****       253.0000 349.2500 -81.5000 Du        
   3314 ****       253.0000 349.2500 -81.2500 Du        
   3315 ****       253.0000 349.5000 -82.7500 Du        
   3316 ****       253.0000 349.5000 -82.5000 Du        
   3317 ****       253.0000 349.5000 -82.2500 Du        
   3318 ****       253.0000 349.5000 -82.0000 Du        
   3319 ****       253.0000 349.5000 -81.7500 Du        
   3320 ****       253.0000 349.5000 -81.5000 Du        
   3321 ****       253.0000 349.5000 -81.2500 Du        
   3322 ****       253.0000 349.7500 -82.7500 Du        
   3323 ****       253.0000 349.7500 -82.5000 Du        
   3324 ****       253.0000 349.7500 -82.2500 Du        
   3325 ****       253.0000 349.7500 -82.0000 Du        
   3326 ****       253.0000 349.7500 -81.7500 Du        
   3327 ****       253.0000 349.7500 -81.5000 Du        
   3328 ****       253.0000 349.7500 -81.2500 Du        
   3329 ****       253.0000 350.0000 -83.0000 Du        
   3330 ****       253.0000 350.0000 -82.7500 Du        
   3331 ****       253.0000 350.0000 -82.5000 Du        
   3332 ****       253.0000 350.0000 -82.2500 Du        
   3333 ****       253.0000 350.0000 -82.0000 Du        
   3334 ****       253.0000 350.0000 -81.7500 Du        
   3335 ****       253.0000 350.0000 -81.5000 Du        
   3336 ****       253.0000 350.0000 -81.2500 Du        
   3337 ****       253.0000 350.2500 -83.0000 Du        
   3338 ****       253.0000 350.2500 -82.7500 Du        
   3339 ****       253.0000 350.2500 -82.5000 Du        
   3340 ****       253.0000 350.2500 -82.2500 Du        
   3341 ****       253.0000 350.2500 -82.0000 Du        
   3342 ****       253.0000 350.2500 -81.7500 Du        
   3343 ****       253.0000 350.2500 -81.5000 Du        
   3344 ****       253.0000 350.2500 -81.2500 Du        
   3345 ****       253.0000 350.5000 -82.2500 Du        
   3346 ****       253.0000 350.5000 -82.0000 Du        
   3347 ****       253.0000 350.5000 -81.7500 Du        
   3348 ****       253.0000 350.5000 -81.5000 Du        
   3349 ****       253.0000 350.5000 -81.2500 Du        
   3350 ****       253.0000 350.7500 -81.2500 Du        
   3351 ****       253.0000 351.7500 -89.2500 Du        
   3352 ****       253.0000 351.7500 -89.0000 Du        
   3353 ****       253.0000 351.7500 -88.7500 Du        
   3354 ****       253.0000 351.7500 -88.5000 Du        
   3355 ****       253.0000 352.0000 -89.2500 Du        
   3356 ****       253.0000 352.0000 -89.0000 Du        
   3357 ****       253.0000 352.0000 -88.7500 Du        
   3358 ****       253.0000 352.0000 -88.5000 Du        
   3359 ****       253.0000 352.0000 -88.2500 Du        
   3360 ****       253.0000 352.0000 -88.0000 Du        
   3361 ****       253.0000 352.0000 -87.7500 Du        
   3362 ****       253.0000 352.0000 -87.5000 Du        
   3363 ****       253.0000 352.0000 -87.2500 Du        
   3364 ****       253.0000 352.0000 -87.0000 Du        
   3365 ****       253.0000 352.0000 -86.7500 Du        
   3366 ****       253.0000 352.2500 -89.2500 Du        
   3367 ****       253.0000 352.2500 -89.0000 Du        
   3368 ****       253.0000 352.2500 -88.7500 Du        
   3369 ****       253.0000 352.2500 -88.5000 Du        
   3370 ****       253.0000 352.2500 -88.2500 Du        
   3371 ****       253.0000 352.2500 -88.0000 Du        
   3372 ****       253.0000 352.2500 -87.7500 Du        
   3373 ****       253.0000 352.2500 -87.5000 Du        
   3374 ****       253.0000 352.2500 -87.2500 Du        
   3375 ****       253.0000 352.2500 -87.0000 Du        
   3376 ****       253.0000 352.2500 -86.7500 Du        
   3377 ****       253.0000 352.5000 -89.2500 Du        
   3378 ****       253.0000 352.5000 -89.0000 Du        
   3379 ****       253.0000 352.5000 -88.7500 Du        
   3380 ****       253.0000 352.5000 -88.5000 Du        
   3381 ****       253.0000 352.5000 -88.2500 Du        
   3382 ****       253.0000 352.5000 -88.0000 Du        
   3383 ****       253.0000 352.5000 -87.7500 Du        
   3384 ****       253.0000 352.5000 -87.5000 Du        
   3385 ****       253.0000 352.5000 -87.2500 Du        
   3386 ****       253.0000 352.5000 -87.0000 Du        
   3387 ****       253.0000 352.7500 -89.2500 Du        
   3388 ****       253.0000 352.7500 -89.0000 Du        
   3389 ****       253.0000 352.7500 -88.7500 Du        
   3390 ****       253.0000 352.7500 -88.5000 Du        
   3391 ****       253.0000 352.7500 -88.2500 Du        
   3392 ****       253.0000 352.7500 -88.0000 Du        
   3393 ****       253.0000 352.7500 -87.7500 Du        
   3394 ****       253.0000 352.7500 -87.5000 Du        
   3395 ****       253.0000 352.7500 -87.2500 Du        
   3396 ****       253.0000 353.0000 -89.0000 Du        
   3397 ****       253.0000 353.0000 -88.7500 Du        
   3398 ****       253.0000 353.0000 -88.5000 Du        
   3399 ****       253.0000 353.0000 -88.2500 Du        
   3400 ****       253.0000 353.0000 -88.0000 Du        
   3401 ****       253.0000 353.0000 -87.7500 Du        
   3402 ****       253.0000 353.0000 -87.5000 Du        
   3403 ****       253.0000 353.2500 -88.5000 Du        
   3404 ****       253.0000 353.2500 -88.2500 Du        
   3405 ****       253.0000 353.2500 -88.0000 Du        
   3406 ****       253.0000 353.2500 -87.7500 Du        
   3407 ****       253.2500 348.5000 -82.0000 Du        
   3408 ****       253.2500 348.5000 -81.7500 Du        
   3409 ****       253.2500 348.5000 -81.5000 Du        
   3410 ****       253.2500 348.7500 -82.2500 Du        
   3411 ****       253.2500 348.7500 -82.0000 Du        
   3412 ****       253.2500 348.7500 -81.7500 Du        
   3413 ****       253.2500 348.7500 -81.5000 Du        
   3414 ****       253.2500 348.7500 -81.2500 Du        
   3415 ****       253.2500 349.0000 -82.2500 Du        
   3416 ****       253.2500 349.0000 -82.0000 Du        
   3417 ****       253.2500 349.0000 -81.7500 Du        
   3418 ****       253.2500 349.0000 -81.5000 Du        
   3419 ****       253.2500 349.0000 -81.2500 Du        
   3420 ****       253.2500 349.2500 -82.5000 Du        
   3421 ****       253.2500 349.2500 -82.2500 Du        
   3422 ****       253.2500 349.2500 -82.0000 Du        
   3423 ****       253.2500 349.2500 -81.7500 Du        
   3424 ****       253.2500 349.2500 -81.5000 Du        
   3425 ****       253.2500 349.2500 -81.2500 Du        
   3426 ****       253.2500 349.5000 -82.5000 Du        
   3427 ****       253.2500 349.5000 -82.2500 Du        
   3428 ****       253.2500 349.5000 -82.0000 Du        
   3429 ****       253.2500 349.5000 -81.7500 Du        
   3430 ****       253.2500 349.5000 -81.5000 Du        
   3431 ****       253.2500 349.5000 -81.2500 Du        
   3432 ****       253.2500 349.7500 -82.7500 Du        
   3433 ****       253.2500 349.7500 -82.5000 Du        
   3434 ****       253.2500 349.7500 -82.2500 Du        
   3435 ****       253.2500 349.7500 -82.0000 Du        
   3436 ****       253.2500 349.7500 -81.7500 Du        
   3437 ****       253.2500 349.7500 -81.5000 Du        
   3438 ****       253.2500 349.7500 -81.2500 Du        
   3439 ****       253.2500 350.0000 -83.0000 Du        
   3440 ****       253.2500 350.0000 -82.7500 Du        
   3441 ****       253.2500 350.0000 -82.5000 Du        
   3442 ****       253.2500 350.0000 -82.2500 Du        
   3443 ****       253.2500 350.0000 -82.0000 Du        
   3444 ****       253.2500 350.0000 -81.7500 Du        
   3445 ****       253.2500 350.0000 -81.5000 Du        
   3446 ****       253.2500 350.0000 -81.2500 Du        
   3447 ****       253.2500 350.0000 -81.0000 Du        
   3448 ****       253.2500 350.2500 -83.0000 Du        
   3449 ****       253.2500 350.2500 -82.7500 Du        
   3450 ****       253.2500 350.2500 -82.5000 Du        
   3451 ****       253.2500 350.2500 -82.2500 Du        
   3452 ****       253.2500 350.2500 -82.0000 Du        
   3453 ****       253.2500 350.2500 -81.7500 Du        
   3454 ****       253.2500 350.2500 -81.5000 Du        
   3455 ****       253.2500 350.2500 -81.2500 Du        
   3456 ****       253.2500 350.2500 -81.0000 Du        
   3457 ****       253.2500 350.5000 -82.2500 Du        
   3458 ****       253.2500 350.5000 -82.0000 Du        
   3459 ****       253.2500 350.5000 -81.7500 Du        
   3460 ****       253.2500 350.5000 -81.5000 Du        
   3461 ****       253.2500 350.5000 -81.2500 Du        
   3462 ****       253.2500 351.5000 -89.2500 Du        
   3463 ****       253.2500 351.7500 -89.2500 Du        
   3464 ****       253.2500 351.7500 -89.0000 Du        
   3465 ****       253.2500 351.7500 -88.7500 Du        
   3466 ****       253.2500 351.7500 -88.5000 Du        
   3467 ****       253.2500 352.0000 -89.2500 Du        
   3468 ****       253.2500 352.0000 -89.0000 Du        
   3469 ****       253.2500 352.0000 -88.7500 Du        
   3470 ****       253.2500 352.0000 -88.5000 Du        
   3471 ****       253.2500 352.0000 -88.2500 Du        
   3472 ****       253.2500 352.0000 -88.0000 Du        
   3473 ****       253.2500 352.0000 -87.7500 Du        
   3474 ****       253.2500 352.0000 -87.5000 Du        
   3475 ****       253.2500 352.0000 -87.2500 Du        
   3476 ****       253.2500 352.0000 -87.0000 Du        
   3477 ****       253.2500 352.0000 -86.7500 Du        
   3478 ****       253.2500 352.2500 -89.2500 Du        
   3479 ****       253.2500 352.2500 -89.0000 Du        
   3480 ****       253.2500 352.2500 -88.7500 Du        
   3481 ****       253.2500 352.2500 -88.5000 Du        
   3482 ****       253.2500 352.2500 -88.2500 Du        
   3483 ****       253.2500 352.2500 -88.0000 Du        
   3484 ****       253.2500 352.2500 -87.7500 Du        
   3485 ****       253.2500 352.2500 -87.5000 Du        
   3486 ****       253.2500 352.2500 -87.2500 Du        
   3487 ****       253.2500 352.2500 -87.0000 Du        
   3488 ****       253.2500 352.5000 -89.2500 Du        
   3489 ****       253.2500 352.5000 -89.0000 Du        
   3490 ****       253.2500 352.5000 -88.7500 Du        
   3491 ****       253.2500 352.5000 -88.5000 Du        
   3492 ****       253.2500 352.5000 -88.2500 Du        
   3493 ****       253.2500 352.5000 -88.0000 Du        
   3494 ****       253.2500 352.5000 -87.7500 Du        
   3495 ****       253.2500 352.5000 -87.5000 Du        
   3496 ****       253.2500 352.5000 -87.2500 Du        
   3497 ****       253.2500 352.5000 -87.0000 Du        
   3498 ****       253.2500 352.7500 -89.2500 Du        
   3499 ****       253.2500 352.7500 -89.0000 Du        
   3500 ****       253.2500 352.7500 -88.7500 Du        
   3501 ****       253.2500 352.7500 -88.5000 Du        
   3502 ****       253.2500 352.7500 -88.2500 Du        
   3503 ****       253.2500 352.7500 -88.0000 Du        
   3504 ****       253.2500 352.7500 -87.7500 Du        
   3505 ****       253.2500 352.7500 -87.5000 Du        
   3506 ****       253.2500 352.7500 -87.2500 Du        
   3507 ****       253.2500 353.0000 -89.0000 Du        
   3508 ****       253.2500 353.0000 -88.7500 Du        
   3509 ****       253.2500 353.0000 -88.5000 Du        
   3510 ****       253.2500 353.0000 -88.2500 Du        
   3511 ****       253.2500 353.0000 -88.0000 Du        
   3512 ****       253.2500 353.0000 -87.7500 Du        
   3513 ****       253.2500 353.0000 -87.5000 Du        
   3514 ****       253.2500 353.2500 -88.2500 Du        
   3515 ****       253.2500 353.2500 -88.0000 Du        
   3516 ****       253.2500 353.2500 -87.7500 Du        
   3517 ****       253.5000 348.5000 -81.7500 Du        
   3518 ****       253.5000 348.5000 -81.5000 Du        
   3519 ****       253.5000 348.5000 -81.2500 Du        
   3520 ****       253.5000 348.7500 -82.2500 Du        
   3521 ****       253.5000 348.7500 -82.0000 Du        
   3522 ****       253.5000 348.7500 -81.7500 Du        
   3523 ****       253.5000 348.7500 -81.5000 Du        
   3524 ****       253.5000 348.7500 -81.2500 Du        
   3525 ****       253.5000 348.7500 -81.0000 Du        
   3526 ****       253.5000 349.0000 -82.2500 Du        
   3527 ****       253.5000 349.0000 -82.0000 Du        
   3528 ****       253.5000 349.0000 -81.7500 Du        
   3529 ****       253.5000 349.0000 -81.5000 Du        
   3530 ****       253.5000 349.0000 -81.2500 Du        
   3531 ****       253.5000 349.0000 -81.0000 Du        
   3532 ****       253.5000 349.2500 -82.5000 Du        
   3533 ****       253.5000 349.2500 -82.2500 Du        
   3534 ****       253.5000 349.2500 -82.0000 Du        
   3535 ****       253.5000 349.2500 -81.7500 Du        
   3536 ****       253.5000 349.2500 -81.5000 Du        
   3537 ****       253.5000 349.2500 -81.2500 Du        
   3538 ****       253.5000 349.2500 -81.0000 Du        
   3539 ****       253.5000 349.5000 -82.5000 Du        
   3540 ****       253.5000 349.5000 -82.2500 Du        
   3541 ****       253.5000 349.5000 -82.0000 Du        
   3542 ****       253.5000 349.5000 -81.7500 Du        
   3543 ****       253.5000 349.5000 -81.5000 Du        
   3544 ****       253.5000 349.5000 -81.2500 Du        
   3545 ****       253.5000 349.5000 -81.0000 Du        
   3546 ****       253.5000 349.7500 -82.7500 Du        
   3547 ****       253.5000 349.7500 -82.5000 Du        
   3548 ****       253.5000 349.7500 -82.2500 Du        
   3549 ****       253.5000 349.7500 -82.0000 Du        
   3550 ****       253.5000 349.7500 -81.7500 Du        
   3551 ****       253.5000 349.7500 -81.5000 Du        
   3552 ****       253.5000 349.7500 -81.2500 Du        
   3553 ****       253.5000 349.7500 -81.0000 Du        
   3554 ****       253.5000 350.0000 -83.0000 Du        
   3555 ****       253.5000 350.0000 -82.7500 Du        
   3556 ****       253.5000 350.0000 -82.5000 Du        
   3557 ****       253.5000 350.0000 -82.2500 Du        
   3558 ****       253.5000 350.0000 -82.0000 Du        
   3559 ****       253.5000 350.0000 -81.7500 Du        
   3560 ****       253.5000 350.0000 -81.5000 Du        
   3561 ****       253.5000 350.0000 -81.2500 Du        
   3562 ****       253.5000 350.0000 -81.0000 Du        
   3563 ****       253.5000 350.2500 -83.0000 Du        
   3564 ****       253.5000 350.2500 -82.7500 Du        
   3565 ****       253.5000 350.2500 -82.5000 Du        
   3566 ****       253.5000 350.2500 -82.2500 Du        
   3567 ****       253.5000 350.2500 -82.0000 Du        
   3568 ****       253.5000 350.2500 -81.7500 Du        
   3569 ****       253.5000 350.2500 -81.5000 Du        
   3570 ****       253.5000 350.2500 -81.2500 Du        
   3571 ****       253.5000 350.2500 -81.0000 Du        
   3572 ****       253.5000 350.5000 -82.5000 Du        
   3573 ****       253.5000 350.5000 -82.2500 Du        
   3574 ****       253.5000 350.5000 -82.0000 Du        
   3575 ****       253.5000 350.5000 -81.7500 Du        
   3576 ****       253.5000 350.5000 -81.5000 Du        
   3577 ****       253.5000 350.5000 -81.2500 Du        
   3578 ****       253.5000 350.5000 -81.0000 Du        
   3579 ****       253.5000 350.7500 -81.2500 Du        
   3580 ****       253.5000 351.7500 -89.2500 Du        
   3581 ****       253.5000 351.7500 -89.0000 Du        
   3582 ****       253.5000 351.7500 -88.7500 Du        
   3583 ****       253.5000 351.7500 -88.5000 Du        
   3584 ****       253.5000 352.0000 -89.2500 Du        
   3585 ****       253.5000 352.0000 -89.0000 Du        
   3586 ****       253.5000 352.0000 -88.7500 Du        
   3587 ****       253.5000 352.0000 -88.5000 Du        
   3588 ****       253.5000 352.0000 -88.2500 Du        
   3589 ****       253.5000 352.0000 -88.0000 Du        
   3590 ****       253.5000 352.0000 -87.7500 Du        
   3591 ****       253.5000 352.0000 -87.5000 Du        
   3592 ****       253.5000 352.0000 -87.2500 Du        
   3593 ****       253.5000 352.2500 -89.2500 Du        
   3594 ****       253.5000 352.2500 -89.0000 Du        
   3595 ****       253.5000 352.2500 -88.7500 Du        
   3596 ****       253.5000 352.2500 -88.5000 Du        
   3597 ****       253.5000 352.2500 -88.2500 Du        
   3598 ****       253.5000 352.2500 -88.0000 Du        
   3599 ****       253.5000 352.2500 -87.7500 Du        
   3600 ****       253.5000 352.2500 -87.5000 Du        
   3601 ****       253.5000 352.2500 -87.2500 Du        
   3602 ****       253.5000 352.2500 -87.0000 Du        
   3603 ****       253.5000 352.5000 -89.2500 Du        
   3604 ****       253.5000 352.5000 -89.0000 Du        
   3605 ****       253.5000 352.5000 -88.7500 Du        
   3606 ****       253.5000 352.5000 -88.5000 Du        
   3607 ****       253.5000 352.5000 -88.2500 Du        
   3608 ****       253.5000 352.5000 -88.0000 Du        
   3609 ****       253.5000 352.5000 -87.7500 Du        
   3610 ****       253.5000 352.5000 -87.5000 Du        
   3611 ****       253.5000 352.5000 -87.2500 Du        
   3612 ****       253.5000 352.7500 -89.2500 Du        
   3613 ****       253.5000 352.7500 -89.0000 Du        
   3614 ****       253.5000 352.7500 -88.7500 Du        
   3615 ****       253.5000 352.7500 -88.5000 Du        
   3616 ****       253.5000 352.7500 -88.2500 Du        
   3617 ****       253.5000 352.7500 -88.0000 Du        
   3618 ****       253.5000 352.7500 -87.7500 Du        
   3619 ****       253.5000 352.7500 -87.5000 Du        
   3620 ****       253.5000 353.0000 -89.0000 Du        
   3621 ****       253.5000 353.0000 -88.7500 Du        
   3622 ****       253.5000 353.0000 -88.5000 Du        
   3623 ****       253.5000 353.0000 -88.2500 Du        
   3624 ****       253.5000 353.0000 -88.0000 Du        
   3625 ****       253.5000 353.0000 -87.7500 Du        
   3626 ****       253.5000 353.0000 -87.5000 Du        
   3627 ****       253.5000 353.2500 -88.2500 Du        
   3628 ****       253.5000 353.2500 -88.0000 Du        
   3629 ****       253.7500 348.5000 -81.7500 Du        
   3630 ****       253.7500 348.5000 -81.5000 Du        
   3631 ****       253.7500 348.5000 -81.2500 Du        
   3632 ****       253.7500 348.7500 -82.0000 Du        
   3633 ****       253.7500 348.7500 -81.7500 Du        
   3634 ****       253.7500 348.7500 -81.5000 Du        
   3635 ****       253.7500 348.7500 -81.2500 Du        
   3636 ****       253.7500 348.7500 -81.0000 Du        
   3637 ****       253.7500 349.0000 -82.2500 Du        
   3638 ****       253.7500 349.0000 -82.0000 Du        
   3639 ****       253.7500 349.0000 -81.7500 Du        
   3640 ****       253.7500 349.0000 -81.5000 Du        
   3641 ****       253.7500 349.0000 -81.2500 Du        
   3642 ****       253.7500 349.0000 -81.0000 Du        
   3643 ****       253.7500 349.2500 -82.5000 Du        
   3644 ****       253.7500 349.2500 -82.2500 Du        
   3645 ****       253.7500 349.2500 -82.0000 Du        
   3646 ****       253.7500 349.2500 -81.7500 Du        
   3647 ****       253.7500 349.2500 -81.5000 Du        
   3648 ****       253.7500 349.2500 -81.2500 Du        
   3649 ****       253.7500 349.2500 -81.0000 Du        
   3650 ****       253.7500 349.5000 -82.5000 Du        
   3651 ****       253.7500 349.5000 -82.2500 Du        
   3652 ****       253.7500 349.5000 -82.0000 Du        
   3653 ****       253.7500 349.5000 -81.7500 Du        
   3654 ****       253.7500 349.5000 -81.5000 Du        
   3655 ****       253.7500 349.5000 -81.2500 Du        
   3656 ****       253.7500 349.5000 -81.0000 Du        
   3657 ****       253.7500 349.7500 -82.7500 Du        
   3658 ****       253.7500 349.7500 -82.5000 Du        
   3659 ****       253.7500 349.7500 -82.2500 Du        
   3660 ****       253.7500 349.7500 -82.0000 Du        
   3661 ****       253.7500 349.7500 -81.7500 Du        
   3662 ****       253.7500 349.7500 -81.5000 Du        
   3663 ****       253.7500 349.7500 -81.2500 Du        
   3664 ****       253.7500 349.7500 -81.0000 Du        
   3665 ****       253.7500 350.0000 -83.0000 Du        
   3666 ****       253.7500 350.0000 -82.7500 Du        
   3667 ****       253.7500 350.0000 -82.5000 Du        
   3668 ****       253.7500 350.0000 -82.2500 Du        
   3669 ****       253.7500 350.0000 -82.0000 Du        
   3670 ****       253.7500 350.0000 -81.7500 Du        
   3671 ****       253.7500 350.0000 -81.5000 Du        
   3672 ****       253.7500 350.0000 -81.2500 Du        
   3673 ****       253.7500 350.0000 -81.0000 Du        
   3674 ****       253.7500 350.0000 -80.7500 Du        
   3675 ****       253.7500 350.2500 -83.0000 Du        
   3676 ****       253.7500 350.2500 -82.7500 Du        
   3677 ****       253.7500 350.2500 -82.5000 Du        
   3678 ****       253.7500 350.2500 -82.2500 Du        
   3679 ****       253.7500 350.2500 -82.0000 Du        
   3680 ****       253.7500 350.2500 -81.7500 Du        
   3681 ****       253.7500 350.2500 -81.5000 Du        
   3682 ****       253.7500 350.2500 -81.2500 Du        
   3683 ****       253.7500 350.2500 -81.0000 Du        
   3684 ****       253.7500 350.2500 -80.7500 Du        
   3685 ****       253.7500 350.5000 -82.5000 Du        
   3686 ****       253.7500 350.5000 -82.2500 Du        
   3687 ****       253.7500 350.5000 -82.0000 Du        
   3688 ****       253.7500 350.5000 -81.7500 Du        
   3689 ****       253.7500 350.5000 -81.5000 Du        
   3690 ****       253.7500 350.5000 -81.2500 Du        
   3691 ****       253.7500 350.5000 -81.0000 Du        
   3692 ****       253.7500 350.5000 -80.7500 Du        
   3693 ****       253.7500 350.7500 -81.2500 Du        
   3694 ****       253.7500 350.7500 -81.0000 Du        
   3695 ****       253.7500 351.5000 -89.5000 Du        
   3696 ****       253.7500 351.5000 -89.2500 Du        
   3697 ****       253.7500 351.5000 -89.0000 Du        
   3698 ****       253.7500 351.7500 -89.5000 Du        
   3699 ****       253.7500 351.7500 -89.2500 Du        
   3700 ****       253.7500 351.7500 -89.0000 Du        
   3701 ****       253.7500 351.7500 -88.7500 Du        
   3702 ****       253.7500 351.7500 -88.5000 Du        
   3703 ****       253.7500 352.0000 -89.5000 Du        
   3704 ****       253.7500 352.0000 -89.2500 Du        
   3705 ****       253.7500 352.0000 -89.0000 Du        
   3706 ****       253.7500 352.0000 -88.7500 Du        
   3707 ****       253.7500 352.0000 -88.5000 Du        
   3708 ****       253.7500 352.0000 -88.2500 Du        
   3709 ****       253.7500 352.0000 -88.0000 Du        
   3710 ****       253.7500 352.0000 -87.7500 Du        
   3711 ****       253.7500 352.2500 -89.5000 Du        
   3712 ****       253.7500 352.2500 -89.2500 Du        
   3713 ****       253.7500 352.2500 -89.0000 Du        
   3714 ****       253.7500 352.2500 -88.7500 Du        
   3715 ****       253.7500 352.2500 -88.5000 Du        
   3716 ****       253.7500 352.2500 -88.2500 Du        
   3717 ****       253.7500 352.2500 -88.0000 Du        
   3718 ****       253.7500 352.2500 -87.7500 Du        
   3719 ****       253.7500 352.5000 -89.5000 Du        
   3720 ****       253.7500 352.5000 -89.2500 Du        
   3721 ****       253.7500 352.5000 -89.0000 Du        
   3722 ****       253.7500 352.5000 -88.7500 Du        
   3723 ****       253.7500 352.5000 -88.5000 Du        
   3724 ****       253.7500 352.5000 -88.2500 Du        
   3725 ****       253.7500 352.5000 -88.0000 Du        
   3726 ****       253.7500 352.5000 -87.7500 Du        
   3727 ****       253.7500 352.7500 -89.2500 Du        
   3728 ****       253.7500 352.7500 -89.0000 Du        
   3729 ****       253.7500 352.7500 -88.7500 Du        
   3730 ****       253.7500 352.7500 -88.5000 Du        
   3731 ****       253.7500 352.7500 -88.2500 Du        
   3732 ****       253.7500 352.7500 -88.0000 Du        
   3733 ****       253.7500 352.7500 -87.7500 Du        
   3734 ****       253.7500 353.0000 -88.7500 Du        
   3735 ****       253.7500 353.0000 -88.5000 Du        
   3736 ****       253.7500 353.0000 -88.2500 Du        
   3737 ****       253.7500 353.0000 -88.0000 Du        
   3738 ****       253.7500 353.0000 -87.7500 Du        
   3739 ****       254.0000 348.7500 -82.0000 Du        
   3740 ****       254.0000 348.7500 -81.7500 Du        
   3741 ****       254.0000 348.7500 -81.5000 Du        
   3742 ****       254.0000 348.7500 -81.2500 Du        
   3743 ****       254.0000 348.7500 -81.0000 Du        
   3744 ****       254.0000 349.0000 -82.2500 Du        
   3745 ****       254.0000 349.0000 -82.0000 Du        
   3746 ****       254.0000 349.0000 -81.7500 Du        
   3747 ****       254.0000 349.0000 -81.5000 Du        
   3748 ****       254.0000 349.0000 -81.2500 Du        
   3749 ****       254.0000 349.0000 -81.0000 Du        
   3750 ****       254.0000 349.2500 -82.5000 Du        
   3751 ****       254.0000 349.2500 -82.2500 Du        
   3752 ****       254.0000 349.2500 -82.0000 Du        
   3753 ****       254.0000 349.2500 -81.7500 Du        
   3754 ****       254.0000 349.2500 -81.5000 Du        
   3755 ****       254.0000 349.2500 -81.2500 Du        
   3756 ****       254.0000 349.2500 -81.0000 Du        
   3757 ****       254.0000 349.2500 -80.7500 Du        
   3758 ****       254.0000 349.5000 -82.5000 Du        
   3759 ****       254.0000 349.5000 -82.2500 Du        
   3760 ****       254.0000 349.5000 -82.0000 Du        
   3761 ****       254.0000 349.5000 -81.7500 Du        
   3762 ****       254.0000 349.5000 -81.5000 Du        
   3763 ****       254.0000 349.5000 -81.2500 Du        
   3764 ****       254.0000 349.5000 -81.0000 Du        
   3765 ****       254.0000 349.5000 -80.7500 Du        
   3766 ****       254.0000 349.7500 -82.7500 Du        
   3767 ****       254.0000 349.7500 -82.5000 Du        
   3768 ****       254.0000 349.7500 -82.2500 Du        
   3769 ****       254.0000 349.7500 -82.0000 Du        
   3770 ****       254.0000 349.7500 -81.7500 Du        
   3771 ****       254.0000 349.7500 -81.5000 Du        
   3772 ****       254.0000 349.7500 -81.2500 Du        
   3773 ****       254.0000 349.7500 -81.0000 Du        
   3774 ****       254.0000 349.7500 -80.7500 Du        
   3775 ****       254.0000 350.0000 -83.0000 Du        
   3776 ****       254.0000 350.0000 -82.7500 Du        
   3777 ****       254.0000 350.0000 -82.5000 Du        
   3778 ****       254.0000 350.0000 -82.2500 Du        
   3779 ****       254.0000 350.0000 -82.0000 Du        
   3780 ****       254.0000 350.0000 -81.7500 Du        
   3781 ****       254.0000 350.0000 -81.5000 Du        
   3782 ****       254.0000 350.0000 -81.2500 Du        
   3783 ****       254.0000 350.0000 -81.0000 Du        
   3784 ****       254.0000 350.0000 -80.7500 Du        
   3785 ****       254.0000 350.2500 -83.0000 Du        
   3786 ****       254.0000 350.2500 -82.7500 Du        
   3787 ****       254.0000 350.2500 -82.5000 Du        
   3788 ****       254.0000 350.2500 -82.2500 Du        
   3789 ****       254.0000 350.2500 -82.0000 Du        
   3790 ****       254.0000 350.2500 -81.7500 Du        
   3791 ****       254.0000 350.2500 -81.5000 Du        
   3792 ****       254.0000 350.2500 -81.2500 Du        
   3793 ****       254.0000 350.2500 -81.0000 Du        
   3794 ****       254.0000 350.2500 -80.7500 Du        
   3795 ****       254.0000 350.2500 -80.5000 Du        
   3796 ****       254.0000 350.5000 -82.7500 Du        
   3797 ****       254.0000 350.5000 -82.5000 Du        
   3798 ****       254.0000 350.5000 -82.2500 Du        
   3799 ****       254.0000 350.5000 -82.0000 Du        
   3800 ****       254.0000 350.5000 -81.7500 Du        
   3801 ****       254.0000 350.5000 -81.5000 Du        
   3802 ****       254.0000 350.5000 -81.2500 Du        
   3803 ****       254.0000 350.5000 -81.0000 Du        
   3804 ****       254.0000 350.5000 -80.7500 Du        
   3805 ****       254.0000 350.7500 -81.2500 Du        
   3806 ****       254.0000 350.7500 -81.0000 Du        
   3807 ****       254.0000 350.7500 -80.7500 Du        
   3808 ****       254.0000 351.5000 -89.5000 Du        
   3809 ****       254.0000 351.5000 -89.2500 Du        
   3810 ****       254.0000 351.5000 -89.0000 Du        
   3811 ****       254.0000 351.7500 -89.5000 Du        
   3812 ****       254.0000 351.7500 -89.2500 Du        
   3813 ****       254.0000 351.7500 -89.0000 Du        
   3814 ****       254.0000 351.7500 -88.7500 Du        
   3815 ****       254.0000 351.7500 -88.5000 Du        
   3816 ****       254.0000 352.0000 -89.5000 Du        
   3817 ****       254.0000 352.0000 -89.2500 Du        
   3818 ****       254.0000 352.0000 -89.0000 Du        
   3819 ****       254.0000 352.0000 -88.7500 Du        
   3820 ****       254.0000 352.0000 -88.5000 Du        
   3821 ****       254.0000 352.0000 -88.2500 Du        
   3822 ****       254.0000 352.2500 -89.5000 Du        
   3823 ****       254.0000 352.2500 -89.2500 Du        
   3824 ****       254.0000 352.2500 -89.0000 Du        
   3825 ****       254.0000 352.2500 -88.7500 Du        
   3826 ****       254.0000 352.2500 -88.5000 Du        
   3827 ****       254.0000 352.2500 -88.2500 Du        
   3828 ****       254.0000 352.2500 -88.0000 Du        
   3829 ****       254.0000 352.5000 -89.5000 Du        
   3830 ****       254.0000 352.5000 -89.2500 Du        
   3831 ****       254.0000 352.5000 -89.0000 Du        
   3832 ****       254.0000 352.5000 -88.7500 Du        
   3833 ****       254.0000 352.5000 -88.5000 Du        
   3834 ****       254.0000 352.5000 -88.2500 Du        
   3835 ****       254.0000 352.7500 -89.5000 Du        
   3836 ****       254.0000 352.7500 -89.2500 Du        
   3837 ****       254.0000 352.7500 -89.0000 Du        
   3838 ****       254.0000 352.7500 -88.7500 Du        
   3839 ****       254.0000 352.7500 -88.5000 Du        
   3840 ****       254.0000 352.7500 -88.2500 Du        
   3841 ****       254.0000 353.0000 -88.7500 Du        
   3842 ****       254.0000 353.0000 -88.5000 Du        
   3843 ****       254.0000 353.0000 -88.2500 Du        
   3844 ****       254.2500 348.7500 -81.7500 Du        
   3845 ****       254.2500 348.7500 -81.5000 Du        
   3846 ****       254.2500 348.7500 -81.2500 Du        
   3847 ****       254.2500 349.0000 -82.2500 Du        
   3848 ****       254.2500 349.0000 -82.0000 Du        
   3849 ****       254.2500 349.0000 -81.7500 Du        
   3850 ****       254.2500 349.0000 -81.5000 Du        
   3851 ****       254.2500 349.0000 -81.2500 Du        
   3852 ****       254.2500 349.0000 -81.0000 Du        
   3853 ****       254.2500 349.2500 -82.2500 Du        
   3854 ****       254.2500 349.2500 -82.0000 Du        
   3855 ****       254.2500 349.2500 -81.7500 Du        
   3856 ****       254.2500 349.2500 -81.5000 Du        
   3857 ****       254.2500 349.2500 -81.2500 Du        
   3858 ****       254.2500 349.2500 -81.0000 Du        
   3859 ****       254.2500 349.2500 -80.7500 Du        
   3860 ****       254.2500 349.5000 -82.5000 Du        
   3861 ****       254.2500 349.5000 -82.2500 Du        
   3862 ****       254.2500 349.5000 -82.0000 Du        
   3863 ****       254.2500 349.5000 -81.7500 Du        
   3864 ****       254.2500 349.5000 -81.5000 Du        
   3865 ****       254.2500 349.5000 -81.2500 Du        
   3866 ****       254.2500 349.5000 -81.0000 Du        
   3867 ****       254.2500 349.5000 -80.7500 Du        
   3868 ****       254.2500 349.7500 -82.7500 Du        
   3869 ****       254.2500 349.7500 -82.5000 Du        
   3870 ****       254.2500 349.7500 -82.2500 Du        
   3871 ****       254.2500 349.7500 -82.0000 Du        
   3872 ****       254.2500 349.7500 -81.7500 Du        
   3873 ****       254.2500 349.7500 -81.5000 Du        
   3874 ****       254.2500 349.7500 -81.2500 Du        
   3875 ****       254.2500 349.7500 -81.0000 Du        
   3876 ****       254.2500 349.7500 -80.7500 Du        
   3877 ****       254.2500 349.7500 -80.5000 Du        
   3878 ****       254.2500 350.0000 -83.0000 Du        
   3879 ****       254.2500 350.0000 -82.7500 Du        
   3880 ****       254.2500 350.0000 -82.5000 Du        
   3881 ****       254.2500 350.0000 -82.2500 Du        
   3882 ****       254.2500 350.0000 -82.0000 Du        
   3883 ****       254.2500 350.0000 -81.7500 Du        
   3884 ****       254.2500 350.0000 -81.5000 Du        
   3885 ****       254.2500 350.0000 -81.2500 Du        
   3886 ****       254.2500 350.0000 -81.0000 Du        
   3887 ****       254.2500 350.0000 -80.7500 Du        
   3888 ****       254.2500 350.0000 -80.5000 Du        
   3889 ****       254.2500 350.2500 -83.0000 Du        
   3890 ****       254.2500 350.2500 -82.7500 Du        
   3891 ****       254.2500 350.2500 -82.5000 Du        
   3892 ****       254.2500 350.2500 -82.2500 Du        
   3893 ****       254.2500 350.2500 -82.0000 Du        
   3894 ****       254.2500 350.2500 -81.7500 Du        
   3895 ****       254.2500 350.2500 -81.5000 Du        
   3896 ****       254.2500 350.2500 -81.2500 Du        
   3897 ****       254.2500 350.2500 -81.0000 Du        
   3898 ****       254.2500 350.2500 -80.7500 Du        
   3899 ****       254.2500 350.2500 -80.5000 Du        
   3900 ****       254.2500 350.5000 -82.7500 Du        
   3901 ****       254.2500 350.5000 -82.5000 Du        
   3902 ****       254.2500 350.5000 -82.2500 Du        
   3903 ****       254.2500 350.5000 -82.0000 Du        
   3904 ****       254.2500 350.5000 -81.7500 Du        
   3905 ****       254.2500 350.5000 -81.5000 Du        
   3906 ****       254.2500 350.5000 -81.2500 Du        
   3907 ****       254.2500 350.5000 -81.0000 Du        
   3908 ****       254.2500 350.5000 -80.7500 Du        
   3909 ****       254.2500 350.5000 -80.5000 Du        
   3910 ****       254.2500 350.7500 -81.2500 Du        
   3911 ****       254.2500 350.7500 -81.0000 Du        
   3912 ****       254.2500 350.7500 -80.7500 Du        
   3913 ****       254.2500 350.7500 -80.5000 Du        
   3914 ****       254.2500 351.2500 -89.5000 Du        
   3915 ****       254.2500 351.2500 -89.2500 Du        
   3916 ****       254.2500 351.5000 -89.7500 Du        
   3917 ****       254.2500 351.5000 -89.5000 Du        
   3918 ****       254.2500 351.5000 -89.2500 Du        
   3919 ****       254.2500 351.5000 -89.0000 Du        
   3920 ****       254.2500 351.5000 -88.7500 Du        
   3921 ****       254.2500 351.7500 -89.7500 Du        
   3922 ****       254.2500 351.7500 -89.5000 Du        
   3923 ****       254.2500 351.7500 -89.2500 Du        
   3924 ****       254.2500 351.7500 -89.0000 Du        
   3925 ****       254.2500 351.7500 -88.7500 Du        
   3926 ****       254.2500 351.7500 -88.5000 Du        
   3927 ****       254.2500 352.0000 -89.7500 Du        
   3928 ****       254.2500 352.0000 -89.5000 Du        
   3929 ****       254.2500 352.0000 -89.2500 Du        
   3930 ****       254.2500 352.0000 -89.0000 Du        
   3931 ****       254.2500 352.0000 -88.7500 Du        
   3932 ****       254.2500 352.0000 -88.5000 Du        
   3933 ****       254.2500 352.2500 -89.7500 Du        
   3934 ****       254.2500 352.2500 -89.5000 Du        
   3935 ****       254.2500 352.2500 -89.2500 Du        
   3936 ****       254.2500 352.2500 -89.0000 Du        
   3937 ****       254.2500 352.2500 -88.7500 Du        
   3938 ****       254.2500 352.2500 -88.5000 Du        
   3939 ****       254.2500 352.5000 -89.7500 Du        
   3940 ****       254.2500 352.5000 -89.5000 Du        
   3941 ****       254.2500 352.5000 -89.2500 Du        
   3942 ****       254.2500 352.5000 -89.0000 Du        
   3943 ****       254.2500 352.5000 -88.7500 Du        
   3944 ****       254.2500 352.5000 -88.5000 Du        
   3945 ****       254.2500 352.7500 -89.5000 Du        
   3946 ****       254.2500 352.7500 -89.2500 Du        
   3947 ****       254.2500 352.7500 -89.0000 Du        
   3948 ****       254.2500 352.7500 -88.7500 Du        
   3949 ****       254.5000 349.0000 -82.0000 Du        
   3950 ****       254.5000 349.0000 -81.7500 Du        
   3951 ****       254.5000 349.0000 -81.5000 Du        
   3952 ****       254.5000 349.0000 -81.2500 Du        
   3953 ****       254.5000 349.2500 -82.5000 Du        
   3954 ****       254.5000 349.2500 -82.2500 Du        
   3955 ****       254.5000 349.2500 -82.0000 Du        
   3956 ****       254.5000 349.2500 -81.7500 Du        
   3957 ****       254.5000 349.2500 -81.5000 Du        
   3958 ****       254.5000 349.2500 -81.2500 Du        
   3959 ****       254.5000 349.2500 -81.0000 Du        
   3960 ****       254.5000 349.2500 -80.7500 Du        
   3961 ****       254.5000 349.5000 -82.5000 Du        
   3962 ****       254.5000 349.5000 -82.2500 Du        
   3963 ****       254.5000 349.5000 -82.0000 Du        
   3964 ****       254.5000 349.5000 -81.7500 Du        
   3965 ****       254.5000 349.5000 -81.5000 Du        
   3966 ****       254.5000 349.5000 -81.2500 Du        
   3967 ****       254.5000 349.5000 -81.0000 Du        
   3968 ****       254.5000 349.5000 -80.7500 Du        
   3969 ****       254.5000 349.5000 -80.5000 Du        
   3970 ****       254.5000 349.7500 -82.7500 Du        
   3971 ****       254.5000 349.7500 -82.5000 Du        
   3972 ****       254.5000 349.7500 -82.2500 Du        
   3973 ****       254.5000 349.7500 -82.0000 Du        
   3974 ****       254.5000 349.7500 -81.7500 Du        
   3975 ****       254.5000 349.7500 -81.5000 Du        
   3976 ****       254.5000 349.7500 -81.2500 Du        
   3977 ****       254.5000 349.7500 -81.0000 Du        
   3978 ****       254.5000 349.7500 -80.7500 Du        
   3979 ****       254.5000 349.7500 -80.5000 Du        
   3980 ****       254.5000 350.0000 -83.0000 Du        
   3981 ****       254.5000 350.0000 -82.7500 Du        
   3982 ****       254.5000 350.0000 -82.5000 Du        
   3983 ****       254.5000 350.0000 -82.2500 Du        
   3984 ****       254.5000 350.0000 -82.0000 Du        
   3985 ****       254.5000 350.0000 -81.7500 Du        
   3986 ****       254.5000 350.0000 -81.5000 Du        
   3987 ****       254.5000 350.0000 -81.2500 Du        
   3988 ****       254.5000 350.0000 -81.0000 Du        
   3989 ****       254.5000 350.0000 -80.7500 Du        
   3990 ****       254.5000 350.0000 -80.5000 Du        
   3991 ****       254.5000 350.0000 -80.2500 Du        
   3992 ****       254.5000 350.2500 -83.0000 Du        
   3993 ****       254.5000 350.2500 -82.7500 Du        
   3994 ****       254.5000 350.2500 -82.5000 Du        
   3995 ****       254.5000 350.2500 -82.2500 Du        
   3996 ****       254.5000 350.2500 -82.0000 Du        
   3997 ****       254.5000 350.2500 -81.7500 Du        
   3998 ****       254.5000 350.2500 -81.5000 Du        
   3999 ****       254.5000 350.2500 -81.2500 Du        
   4000 ****       254.5000 350.2500 -81.0000 Du        
   4001 ****       254.5000 350.2500 -80.7500 Du        
   4002 ****       254.5000 350.2500 -80.5000 Du        
   4003 ****       254.5000 350.2500 -80.2500 Du        
   4004 ****       254.5000 350.5000 -83.0000 Du        
   4005 ****       254.5000 350.5000 -82.7500 Du        
   4006 ****       254.5000 350.5000 -82.5000 Du        
   4007 ****       254.5000 350.5000 -82.2500 Du        
   4008 ****       254.5000 350.5000 -82.0000 Du        
   4009 ****       254.5000 350.5000 -81.7500 Du        
   4010 ****       254.5000 350.5000 -81.5000 Du        
   4011 ****       254.5000 350.5000 -81.2500 Du        
   4012 ****       254.5000 350.5000 -81.0000 Du        
   4013 ****       254.5000 350.5000 -80.7500 Du        
   4014 ****       254.5000 350.5000 -80.5000 Du        
   4015 ****       254.5000 350.5000 -80.2500 Du        
   4016 ****       254.5000 350.7500 -81.2500 Du        
   4017 ****       254.5000 350.7500 -81.0000 Du        
   4018 ****       254.5000 350.7500 -80.7500 Du        
   4019 ****       254.5000 350.7500 -80.5000 Du        
   4020 ****       254.5000 350.7500 -80.2500 Du        
   4021 ****       254.5000 351.2500 -89.5000 Du        
   4022 ****       254.5000 351.2500 -89.2500 Du        
   4023 ****       254.5000 351.5000 -89.7500 Du        
   4024 ****       254.5000 351.5000 -89.5000 Du        
   4025 ****       254.5000 351.5000 -89.2500 Du        
   4026 ****       254.5000 351.5000 -89.0000 Du        
   4027 ****       254.5000 351.7500 -89.7500 Du        
   4028 ****       254.5000 351.7500 -89.5000 Du        
   4029 ****       254.5000 351.7500 -89.2500 Du        
   4030 ****       254.5000 351.7500 -89.0000 Du        
   4031 ****       254.5000 351.7500 -88.7500 Du        
   4032 ****       254.5000 352.0000 -89.7500 Du        
   4033 ****       254.5000 352.0000 -89.5000 Du        
   4034 ****       254.5000 352.0000 -89.2500 Du        
   4035 ****       254.5000 352.0000 -89.0000 Du        
   4036 ****       254.5000 352.2500 -89.7500 Du        
   4037 ****       254.5000 352.2500 -89.5000 Du        
   4038 ****       254.5000 352.2500 -89.2500 Du        
   4039 ****       254.5000 352.2500 -89.0000 Du        
   4040 ****       254.5000 352.5000 -89.7500 Du        
   4041 ****       254.5000 352.5000 -89.5000 Du        
   4042 ****       254.5000 352.5000 -89.2500 Du        
   4043 ****       254.5000 352.5000 -89.0000 Du        
   4044 ****       254.5000 352.7500 -89.5000 Du        
   4045 ****       254.5000 352.7500 -89.2500 Du        
   4046 ****       254.5000 352.7500 -89.0000 Du        
   4047 ****       254.7500 349.0000 -82.0000 Du        
   4048 ****       254.7500 349.0000 -81.7500 Du        
   4049 ****       254.7500 349.0000 -81.5000 Du        
   4050 ****       254.7500 349.0000 -81.2500 Du        
   4051 ****       254.7500 349.2500 -82.2500 Du        
   4052 ****       254.7500 349.2500 -82.0000 Du        
   4053 ****       254.7500 349.2500 -81.7500 Du        
   4054 ****       254.7500 349.2500 -81.5000 Du        
   4055 ****       254.7500 349.2500 -81.2500 Du        
   4056 ****       254.7500 349.2500 -81.0000 Du        
   4057 ****       254.7500 349.5000 -82.5000 Du        
   4058 ****       254.7500 349.5000 -82.2500 Du        
   4059 ****       254.7500 349.5000 -82.0000 Du        
   4060 ****       254.7500 349.5000 -81.7500 Du        
   4061 ****       254.7500 349.5000 -81.5000 Du        
   4062 ****       254.7500 349.5000 -81.2500 Du        
   4063 ****       254.7500 349.5000 -81.0000 Du        
   4064 ****       254.7500 349.5000 -80.7500 Du        
   4065 ****       254.7500 349.7500 -82.7500 Du        
   4066 ****       254.7500 349.7500 -82.5000 Du        
   4067 ****       254.7500 349.7500 -82.2500 Du        
   4068 ****       254.7500 349.7500 -82.0000 Du        
   4069 ****       254.7500 349.7500 -81.7500 Du        
   4070 ****       254.7500 349.7500 -81.5000 Du        
   4071 ****       254.7500 349.7500 -81.2500 Du        
   4072 ****       254.7500 349.7500 -81.0000 Du        
   4073 ****       254.7500 349.7500 -80.7500 Du        
   4074 ****       254.7500 349.7500 -80.5000 Du        
   4075 ****       254.7500 350.0000 -83.0000 Du        
   4076 ****       254.7500 350.0000 -82.7500 Du        
   4077 ****       254.7500 350.0000 -82.5000 Du        
   4078 ****       254.7500 350.0000 -82.2500 Du        
   4079 ****       254.7500 350.0000 -82.0000 Du        
   4080 ****       254.7500 350.0000 -81.7500 Du        
   4081 ****       254.7500 350.0000 -81.5000 Du        
   4082 ****       254.7500 350.0000 -81.2500 Du        
   4083 ****       254.7500 350.0000 -81.0000 Du        
   4084 ****       254.7500 350.0000 -80.7500 Du        
   4085 ****       254.7500 350.0000 -80.5000 Du        
   4086 ****       254.7500 350.0000 -80.2500 Du        
   4087 ****       254.7500 350.2500 -83.2500 Du        
   4088 ****       254.7500 350.2500 -83.0000 Du        
   4089 ****       254.7500 350.2500 -82.7500 Du        
   4090 ****       254.7500 350.2500 -82.5000 Du        
   4091 ****       254.7500 350.2500 -82.2500 Du        
   4092 ****       254.7500 350.2500 -82.0000 Du        
   4093 ****       254.7500 350.2500 -81.7500 Du        
   4094 ****       254.7500 350.2500 -81.5000 Du        
   4095 ****       254.7500 350.2500 -81.2500 Du        
   4096 ****       254.7500 350.2500 -81.0000 Du        
   4097 ****       254.7500 350.2500 -80.7500 Du        
   4098 ****       254.7500 350.2500 -80.5000 Du        
   4099 ****       254.7500 350.2500 -80.2500 Du        
   4100 ****       254.7500 350.2500 -80.0000 Du        
   4101 ****       254.7500 350.5000 -83.2500 Du        
   4102 ****       254.7500 350.5000 -83.0000 Du        
   4103 ****       254.7500 350.5000 -82.7500 Du        
   4104 ****       254.7500 350.5000 -82.5000 Du        
   4105 ****       254.7500 350.5000 -82.2500 Du        
   4106 ****       254.7500 350.5000 -82.0000 Du        
   4107 ****       254.7500 350.5000 -81.7500 Du        
   4108 ****       254.7500 350.5000 -81.5000 Du        
   4109 ****       254.7500 350.5000 -81.2500 Du        
   4110 ****       254.7500 350.5000 -81.0000 Du        
   4111 ****       254.7500 350.5000 -80.7500 Du        
   4112 ****       254.7500 350.5000 -80.5000 Du        
   4113 ****       254.7500 350.5000 -80.2500 Du        
   4114 ****       254.7500 350.5000 -80.0000 Du        
   4115 ****       254.7500 350.7500 -81.2500 Du        
   4116 ****       254.7500 350.7500 -81.0000 Du        
   4117 ****       254.7500 350.7500 -80.7500 Du        
   4118 ****       254.7500 350.7500 -80.5000 Du        
   4119 ****       254.7500 350.7500 -80.2500 Du        
   4120 ****       254.7500 351.0000 -89.7500 Du        
   4121 ****       254.7500 351.0000 -89.5000 Du        
   4122 ****       254.7500 351.0000 -89.2500 Du        
   4123 ****       254.7500 351.2500 -89.7500 Du        
   4124 ****       254.7500 351.2500 -89.5000 Du        
   4125 ****       254.7500 351.2500 -89.2500 Du        
   4126 ****       254.7500 351.5000 -89.7500 Du        
   4127 ****       254.7500 351.5000 -89.5000 Du        
   4128 ****       254.7500 351.5000 -89.2500 Du        
   4129 ****       254.7500 351.5000 -89.0000 Du        
   4130 ****       254.7500 351.7500 -89.7500 Du        
   4131 ****       254.7500 351.7500 -89.5000 Du        
   4132 ****       254.7500 351.7500 -89.2500 Du        
   4133 ****       254.7500 351.7500 -89.0000 Du        
   4134 ****       254.7500 352.0000 -89.7500 Du        
   4135 ****       254.7500 352.0000 -89.5000 Du        
   4136 ****       254.7500 352.0000 -89.2500 Du        
   4137 ****       254.7500 352.0000 -89.0000 Du        
   4138 ****       254.7500 352.2500 -89.7500 Du        
   4139 ****       254.7500 352.2500 -89.5000 Du        
   4140 ****       254.7500 352.2500 -89.2500 Du        
   4141 ****       254.7500 352.5000 -89.7500 Du        
   4142 ****       254.7500 352.5000 -89.5000 Du        
   4143 ****       254.7500 352.5000 -89.2500 Du        
   4144 ****       254.7500 352.7500 -89.7500 Du        
   4145 ****       254.7500 352.7500 -89.5000 Du        
   4146 ****       254.7500 352.7500 -89.2500 Du        
   4147 ****       255.0000 349.0000 -82.0000 Du        
   4148 ****       255.0000 349.0000 -81.7500 Du        
   4149 ****       255.0000 349.0000 -81.5000 Du        
   4150 ****       255.0000 349.2500 -82.5000 Du        
   4151 ****       255.0000 349.2500 -82.2500 Du        
   4152 ****       255.0000 349.2500 -82.0000 Du        
   4153 ****       255.0000 349.2500 -81.7500 Du        
   4154 ****       255.0000 349.2500 -81.5000 Du        
   4155 ****       255.0000 349.2500 -81.2500 Du        
   4156 ****       255.0000 349.2500 -81.0000 Du        
   4157 ****       255.0000 349.5000 -82.7500 Du        
   4158 ****       255.0000 349.5000 -82.5000 Du        
   4159 ****       255.0000 349.5000 -82.2500 Du        
   4160 ****       255.0000 349.5000 -82.0000 Du        
   4161 ****       255.0000 349.5000 -81.7500 Du        
   4162 ****       255.0000 349.5000 -81.5000 Du        
   4163 ****       255.0000 349.5000 -81.2500 Du        
   4164 ****       255.0000 349.5000 -81.0000 Du        
   4165 ****       255.0000 349.5000 -80.7500 Du        
   4166 ****       255.0000 349.7500 -83.0000 Du        
   4167 ****       255.0000 349.7500 -82.7500 Du        
   4168 ****       255.0000 349.7500 -82.5000 Du        
   4169 ****       255.0000 349.7500 -82.2500 Du        
   4170 ****       255.0000 349.7500 -82.0000 Du        
   4171 ****       255.0000 349.7500 -81.7500 Du        
   4172 ****       255.0000 349.7500 -81.5000 Du        
   4173 ****       255.0000 349.7500 -81.2500 Du        
   4174 ****       255.0000 349.7500 -81.0000 Du        
   4175 ****       255.0000 349.7500 -80.7500 Du        
   4176 ****       255.0000 349.7500 -80.5000 Du        
   4177 ****       255.0000 350.0000 -83.2500 Du        
   4178 ****       255.0000 350.0000 -83.0000 Du        
   4179 ****       255.0000 350.0000 -82.7500 Du        
   4180 ****       255.0000 350.0000 -82.5000 Du        
   4181 ****       255.0000 350.0000 -82.2500 Du        
   4182 ****       255.0000 350.0000 -82.0000 Du        
   4183 ****       255.0000 350.0000 -81.7500 Du        
   4184 ****       255.0000 350.0000 -81.5000 Du        
   4185 ****       255.0000 350.0000 -81.2500 Du        
   4186 ****       255.0000 350.0000 -81.0000 Du        
   4187 ****       255.0000 350.0000 -80.7500 Du        
   4188 ****       255.0000 350.0000 -80.5000 Du        
   4189 ****       255.0000 350.0000 -80.2500 Du        
   4190 ****       255.0000 350.2500 -83.5000 Du        
   4191 ****       255.0000 350.2500 -83.2500 Du        
   4192 ****       255.0000 350.2500 -83.0000 Du        
   4193 ****       255.0000 350.2500 -82.7500 Du        
   4194 ****       255.0000 350.2500 -82.5000 Du        
   4195 ****       255.0000 350.2500 -82.2500 Du        
   4196 ****       255.0000 350.2500 -82.0000 Du        
   4197 ****       255.0000 350.2500 -81.7500 Du        
   4198 ****       255.0000 350.2500 -81.5000 Du        
   4199 ****       255.0000 350.2500 -81.2500 Du        
   4200 ****       255.0000 350.2500 -81.0000 Du        
   4201 ****       255.0000 350.2500 -80.7500 Du        
   4202 ****       255.0000 350.2500 -80.5000 Du        
   4203 ****       255.0000 350.2500 -80.2500 Du        
   4204 ****       255.0000 350.5000 -83.5000 Du        
   4205 ****       255.0000 350.5000 -83.2500 Du        
   4206 ****       255.0000 350.5000 -83.0000 Du        
   4207 ****       255.0000 350.5000 -82.7500 Du        
   4208 ****       255.0000 350.5000 -82.5000 Du        
   4209 ****       255.0000 350.5000 -82.2500 Du        
   4210 ****       255.0000 350.5000 -82.0000 Du        
   4211 ****       255.0000 350.5000 -81.7500 Du        
   4212 ****       255.0000 350.5000 -81.5000 Du        
   4213 ****       255.0000 350.5000 -81.2500 Du        
   4214 ****       255.0000 350.5000 -81.0000 Du        
   4215 ****       255.0000 350.5000 -80.7500 Du        
   4216 ****       255.0000 350.5000 -80.5000 Du        
   4217 ****       255.0000 350.5000 -80.2500 Du        
   4218 ****       255.0000 350.7500 -89.7500 Du        
   4219 ****       255.0000 350.7500 -84.0000 Du        
   4220 ****       255.0000 350.7500 -83.7500 Du        
   4221 ****       255.0000 351.0000 -89.7500 Du        
   4222 ****       255.0000 351.0000 -89.5000 Du        
   4223 ****       255.0000 351.0000 -89.2500 Du        
   4224 ****       255.0000 351.2500 -89.7500 Du        
   4225 ****       255.0000 351.2500 -89.5000 Du        
   4226 ****       255.0000 351.2500 -89.2500 Du        
   4227 ****       255.0000 351.5000 -89.7500 Du        
   4228 ****       255.0000 351.5000 -89.5000 Du        
   4229 ****       255.0000 351.5000 -89.2500 Du        
   4230 ****       255.0000 351.7500 -89.7500 Du        
   4231 ****       255.0000 351.7500 -89.5000 Du        
   4232 ****       255.0000 351.7500 -89.2500 Du        
   4233 ****       255.0000 352.0000 -89.7500 Du        
   4234 ****       255.0000 352.0000 -89.5000 Du        
   4235 ****       255.0000 352.0000 -89.2500 Du        
   4236 ****       255.0000 352.2500 -89.7500 Du        
   4237 ****       255.0000 352.2500 -89.5000 Du        
   4238 ****       255.0000 352.2500 -89.2500 Du        
   4239 ****       255.0000 352.5000 -89.7500 Du        
   4240 ****       255.0000 352.5000 -89.5000 Du        
   4241 ****       255.0000 352.5000 -89.2500 Du        
   4242 ****       255.0000 352.7500 -89.7500 Du        
   4243 ****       255.0000 352.7500 -89.5000 Du        
   4244 ****       255.2500 349.0000 -82.0000 Du        
   4245 ****       255.2500 349.0000 -81.7500 Du        
   4246 ****       255.2500 349.2500 -82.5000 Du        
   4247 ****       255.2500 349.2500 -82.2500 Du        
   4248 ****       255.2500 349.2500 -82.0000 Du        
   4249 ****       255.2500 349.2500 -81.7500 Du        
   4250 ****       255.2500 349.2500 -81.5000 Du        
   4251 ****       255.2500 349.2500 -81.2500 Du        
   4252 ****       255.2500 349.5000 -82.7500 Du        
   4253 ****       255.2500 349.5000 -82.5000 Du        
   4254 ****       255.2500 349.5000 -82.2500 Du        
   4255 ****       255.2500 349.5000 -82.0000 Du        
   4256 ****       255.2500 349.5000 -81.7500 Du        
   4257 ****       255.2500 349.5000 -81.5000 Du        
   4258 ****       255.2500 349.5000 -81.2500 Du        
   4259 ****       255.2500 349.5000 -81.0000 Du        
   4260 ****       255.2500 349.7500 -83.0000 Du        
   4261 ****       255.2500 349.7500 -82.7500 Du        
   4262 ****       255.2500 349.7500 -82.5000 Du        
   4263 ****       255.2500 349.7500 -82.2500 Du        
   4264 ****       255.2500 349.7500 -82.0000 Du        
   4265 ****       255.2500 349.7500 -81.7500 Du        
   4266 ****       255.2500 349.7500 -81.5000 Du        
   4267 ****       255.2500 349.7500 -81.2500 Du        
   4268 ****       255.2500 349.7500 -81.0000 Du        
   4269 ****       255.2500 349.7500 -80.7500 Du        
   4270 ****       255.2500 350.0000 -83.2500 Du        
   4271 ****       255.2500 350.0000 -83.0000 Du        
   4272 ****       255.2500 350.0000 -82.7500 Du        
   4273 ****       255.2500 350.0000 -82.5000 Du        
   4274 ****       255.2500 350.0000 -82.2500 Du        
   4275 ****       255.2500 350.0000 -82.0000 Du        
   4276 ****       255.2500 350.0000 -81.7500 Du        
   4277 ****       255.2500 350.0000 -81.5000 Du        
   4278 ****       255.2500 350.0000 -81.2500 Du        
   4279 ****       255.2500 350.0000 -81.0000 Du        
   4280 ****       255.2500 350.0000 -80.7500 Du        
   4281 ****       255.2500 350.0000 -80.5000 Du        
   4282 ****       255.2500 350.2500 -83.5000 Du        
   4283 ****       255.2500 350.2500 -83.2500 Du        
   4284 ****       255.2500 350.2500 -83.0000 Du        
   4285 ****       255.2500 350.2500 -82.7500 Du        
   4286 ****       255.2500 350.2500 -82.5000 Du        
   4287 ****       255.2500 350.2500 -82.2500 Du        
   4288 ****       255.2500 350.2500 -82.0000 Du        
   4289 ****       255.2500 350.2500 -81.7500 Du        
   4290 ****       255.2500 350.2500 -81.5000 Du        
   4291 ****       255.2500 350.2500 -81.2500 Du        
   4292 ****       255.2500 350.2500 -81.0000 Du        
   4293 ****       255.2500 350.2500 -80.7500 Du        
   4294 ****       255.2500 350.2500 -80.5000 Du        
   4295 ****       255.2500 350.5000 -89.7500 Du        
   4296 ****       255.2500 350.5000 -83.7500 Du        
   4297 ****       255.2500 350.5000 -83.5000 Du        
   4298 ****       255.2500 350.5000 -83.2500 Du        
   4299 ****       255.2500 350.5000 -83.0000 Du        
   4300 ****       255.2500 350.5000 -82.7500 Du        
   4301 ****       255.2500 350.5000 -82.5000 Du        
   4302 ****       255.2500 350.5000 -82.2500 Du        
   4303 ****       255.2500 350.5000 -82.0000 Du        
   4304 ****       255.2500 350.5000 -81.7500 Du        
   4305 ****       255.2500 350.5000 -81.5000 Du        
   4306 ****       255.2500 350.5000 -81.2500 Du        
   4307 ****       255.2500 350.5000 -81.0000 Du        
   4308 ****       255.2500 350.5000 -80.7500 Du        
   4309 ****       255.2500 350.7500 -90.0000 Du        
   4310 ****       255.2500 350.7500 -89.7500 Du        
   4311 ****       255.2500 350.7500 -89.5000 Du        
   4312 ****       255.2500 350.7500 -84.2500 Du        
   4313 ****       255.2500 350.7500 -84.0000 Du        
   4314 ****       255.2500 350.7500 -83.7500 Du        
   4315 ****       255.2500 350.7500 -83.5000 Du        
   4316 ****       255.2500 350.7500 -83.2500 Du        
   4317 ****       255.2500 351.0000 -90.0000 Du        
   4318 ****       255.2500 351.0000 -89.7500 Du        
   4319 ****       255.2500 351.0000 -89.5000 Du        
   4320 ****       255.2500 351.0000 -89.2500 Du        
   4321 ****       255.2500 351.2500 -89.7500 Du        
   4322 ****       255.2500 351.2500 -89.5000 Du        
   4323 ****       255.2500 351.2500 -89.2500 Du        
   4324 ****       255.2500 351.5000 -89.7500 Du        
   4325 ****       255.2500 351.5000 -89.5000 Du        
   4326 ****       255.2500 351.5000 -89.2500 Du        
   4327 ****       255.2500 351.7500 -89.7500 Du        
   4328 ****       255.2500 351.7500 -89.5000 Du        
   4329 ****       255.2500 352.0000 -89.7500 Du        
   4330 ****       255.2500 352.0000 -89.5000 Du        
   4331 ****       255.2500 352.2500 -89.7500 Du        
   4332 ****       255.2500 352.2500 -89.5000 Du        
   4333 ****       255.2500 352.5000 -89.7500 Du        
   4334 ****       255.2500 352.5000 -89.5000 Du        
   4335 ****       255.2500 352.7500 -89.7500 Du        
   4336 ****       255.2500 352.7500 -89.5000 Du        
   4337 ****       255.5000 349.0000 -82.2500 Du        
   4338 ****       255.5000 349.0000 -82.0000 Du        
   4339 ****       255.5000 349.0000 -81.7500 Du        
   4340 ****       255.5000 349.2500 -82.5000 Du        
   4341 ****       255.5000 349.2500 -82.2500 Du        
   4342 ****       255.5000 349.2500 -82.0000 Du        
   4343 ****       255.5000 349.2500 -81.7500 Du        
   4344 ****       255.5000 349.2500 -81.5000 Du        
   4345 ****       255.5000 349.2500 -81.2500 Du        
   4346 ****       255.5000 349.5000 -82.7500 Du        
   4347 ****       255.5000 349.5000 -82.5000 Du        
   4348 ****       255.5000 349.5000 -82.2500 Du        
   4349 ****       255.5000 349.5000 -82.0000 Du        
   4350 ****       255.5000 349.5000 -81.7500 Du        
   4351 ****       255.5000 349.5000 -81.5000 Du        
   4352 ****       255.5000 349.5000 -81.2500 Du        
   4353 ****       255.5000 349.5000 -81.0000 Du        
   4354 ****       255.5000 349.7500 -83.2500 Du        
   4355 ****       255.5000 349.7500 -83.0000 Du        
   4356 ****       255.5000 349.7500 -82.7500 Du        
   4357 ****       255.5000 349.7500 -82.5000 Du        
   4358 ****       255.5000 349.7500 -82.2500 Du        
   4359 ****       255.5000 349.7500 -82.0000 Du        
   4360 ****       255.5000 349.7500 -81.7500 Du        
   4361 ****       255.5000 349.7500 -81.5000 Du        
   4362 ****       255.5000 349.7500 -81.2500 Du        
   4363 ****       255.5000 349.7500 -81.0000 Du        
   4364 ****       255.5000 350.0000 -83.5000 Du        
   4365 ****       255.5000 350.0000 -83.2500 Du        
   4366 ****       255.5000 350.0000 -83.0000 Du        
   4367 ****       255.5000 350.0000 -82.7500 Du        
   4368 ****       255.5000 350.0000 -82.5000 Du        
   4369 ****       255.5000 350.0000 -82.2500 Du        
   4370 ****       255.5000 350.0000 -82.0000 Du        
   4371 ****       255.5000 350.0000 -81.7500 Du        
   4372 ****       255.5000 350.0000 -81.5000 Du        
   4373 ****       255.5000 350.0000 -81.2500 Du        
   4374 ****       255.5000 350.0000 -81.0000 Du        
   4375 ****       255.5000 350.0000 -80.7500 Du        
   4376 ****       255.5000 350.2500 -83.7500 Du        
   4377 ****       255.5000 350.2500 -83.5000 Du        
   4378 ****       255.5000 350.2500 -83.2500 Du        
   4379 ****       255.5000 350.2500 -83.0000 Du        
   4380 ****       255.5000 350.2500 -82.7500 Du        
   4381 ****       255.5000 350.2500 -82.5000 Du        
   4382 ****       255.5000 350.2500 -82.2500 Du        
   4383 ****       255.5000 350.2500 -82.0000 Du        
   4384 ****       255.5000 350.2500 -81.7500 Du        
   4385 ****       255.5000 350.2500 -81.5000 Du        
   4386 ****       255.5000 350.2500 -81.2500 Du        
   4387 ****       255.5000 350.2500 -81.0000 Du        
   4388 ****       255.5000 350.5000 -89.7500 Du        
   4389 ****       255.5000 350.5000 -84.2500 Du        
   4390 ****       255.5000 350.5000 -84.0000 Du        
   4391 ****       255.5000 350.5000 -83.7500 Du        
   4392 ****       255.5000 350.5000 -83.5000 Du        
   4393 ****       255.5000 350.5000 -83.2500 Du        
   4394 ****       255.5000 350.5000 -83.0000 Du        
   4395 ****       255.5000 350.5000 -82.7500 Du        
   4396 ****       255.5000 350.5000 -82.5000 Du        
   4397 ****       255.5000 350.5000 -82.2500 Du        
   4398 ****       255.5000 350.5000 -82.0000 Du        
   4399 ****       255.5000 350.5000 -81.7500 Du        
   4400 ****       255.5000 350.5000 -81.5000 Du        
   4401 ****       255.5000 350.7500 -90.0000 Du        
   4402 ****       255.5000 350.7500 -89.7500 Du        
   4403 ****       255.5000 350.7500 -89.5000 Du        
   4404 ****       255.5000 350.7500 -84.2500 Du        
   4405 ****       255.5000 350.7500 -84.0000 Du        
   4406 ****       255.5000 350.7500 -83.7500 Du        
   4407 ****       255.5000 350.7500 -83.5000 Du        
   4408 ****       255.5000 350.7500 -83.2500 Du        
   4409 ****       255.5000 350.7500 -83.0000 Du        
   4410 ****       255.5000 350.7500 -82.7500 Du        
   4411 ****       255.5000 351.0000 -90.0000 Du        
   4412 ****       255.5000 351.0000 -89.7500 Du        
   4413 ****       255.5000 351.0000 -89.5000 Du        
   4414 ****       255.5000 351.0000 -84.0000 Du        
   4415 ****       255.5000 351.2500 -89.7500 Du        
   4416 ****       255.5000 351.2500 -89.5000 Du        
   4417 ****       255.5000 351.5000 -89.7500 Du        
   4418 ****       255.5000 351.5000 -89.5000 Du        
   4419 ****       255.5000 351.7500 -89.7500 Du        
   4420 ****       255.5000 351.7500 -89.5000 Du        
   4421 ****       255.5000 352.0000 -89.7500 Du        
   4422 ****       255.5000 352.2500 -89.7500 Du        
   4423 ****       255.5000 352.5000 -90.0000 Du        
   4424 ****       255.5000 352.5000 -89.7500 Du        
   4425 ****       255.5000 352.7500 -89.7500 Du        
   4426 ****       255.7500 349.0000 -82.2500 Du        
   4427 ****       255.7500 349.0000 -82.0000 Du        
   4428 ****       255.7500 349.0000 -81.7500 Du        
   4429 ****       255.7500 349.2500 -82.7500 Du        
   4430 ****       255.7500 349.2500 -82.5000 Du        
   4431 ****       255.7500 349.2500 -82.2500 Du        
   4432 ****       255.7500 349.2500 -82.0000 Du        
   4433 ****       255.7500 349.2500 -81.7500 Du        
   4434 ****       255.7500 349.2500 -81.5000 Du        
   4435 ****       255.7500 349.5000 -83.0000 Du        
   4436 ****       255.7500 349.5000 -82.7500 Du        
   4437 ****       255.7500 349.5000 -82.5000 Du        
   4438 ****       255.7500 349.5000 -82.2500 Du        
   4439 ****       255.7500 349.5000 -82.0000 Du        
   4440 ****       255.7500 349.5000 -81.7500 Du        
   4441 ****       255.7500 349.5000 -81.5000 Du        
   4442 ****       255.7500 349.5000 -81.2500 Du        
   4443 ****       255.7500 349.7500 -83.5000 Du        
   4444 ****       255.7500 349.7500 -83.2500 Du        
   4445 ****       255.7500 349.7500 -83.0000 Du        
   4446 ****       255.7500 349.7500 -82.7500 Du        
   4447 ****       255.7500 349.7500 -82.5000 Du        
   4448 ****       255.7500 349.7500 -82.2500 Du        
   4449 ****       255.7500 349.7500 -82.0000 Du        
   4450 ****       255.7500 349.7500 -81.7500 Du        
   4451 ****       255.7500 349.7500 -81.5000 Du        
   4452 ****       255.7500 349.7500 -81.2500 Du        
   4453 ****       255.7500 349.7500 -81.0000 Du        
   4454 ****       255.7500 350.0000 -83.7500 Du        
   4455 ****       255.7500 350.0000 -83.5000 Du        
   4456 ****       255.7500 350.0000 -83.2500 Du        
   4457 ****       255.7500 350.0000 -83.0000 Du        
   4458 ****       255.7500 350.0000 -82.7500 Du        
   4459 ****       255.7500 350.0000 -82.5000 Du        
   4460 ****       255.7500 350.0000 -82.2500 Du        
   4461 ****       255.7500 350.0000 -82.0000 Du        
   4462 ****       255.7500 350.0000 -81.7500 Du        
   4463 ****       255.7500 350.0000 -81.5000 Du        
   4464 ****       255.7500 350.0000 -81.2500 Du        
   4465 ****       255.7500 350.0000 -81.0000 Du        
   4466 ****       255.7500 350.2500 -84.0000 Du        
   4467 ****       255.7500 350.2500 -83.7500 Du        
   4468 ****       255.7500 350.2500 -83.5000 Du        
   4469 ****       255.7500 350.2500 -83.2500 Du        
   4470 ****       255.7500 350.2500 -83.0000 Du        
   4471 ****       255.7500 350.2500 -82.7500 Du        
   4472 ****       255.7500 350.2500 -82.5000 Du        
   4473 ****       255.7500 350.2500 -82.2500 Du        
   4474 ****       255.7500 350.2500 -82.0000 Du        
   4475 ****       255.7500 350.2500 -81.7500 Du        
   4476 ****       255.7500 350.2500 -81.5000 Du        
   4477 ****       255.7500 350.2500 -81.2500 Du        
   4478 ****       255.7500 350.5000 -89.7500 Du        
   4479 ****       255.7500 350.5000 -89.5000 Du        
   4480 ****       255.7500 350.5000 -84.2500 Du        
   4481 ****       255.7500 350.5000 -84.0000 Du        
   4482 ****       255.7500 350.5000 -83.7500 Du        
   4483 ****       255.7500 350.5000 -83.5000 Du        
   4484 ****       255.7500 350.5000 -83.2500 Du        
   4485 ****       255.7500 350.5000 -83.0000 Du        
   4486 ****       255.7500 350.5000 -82.7500 Du        
   4487 ****       255.7500 350.5000 -82.5000 Du        
   4488 ****       255.7500 350.5000 -82.2500 Du        
   4489 ****       255.7500 350.5000 -82.0000 Du        
   4490 ****       255.7500 350.5000 -81.7500 Du        
   4491 ****       255.7500 350.7500 -90.0000 Du        
   4492 ****       255.7500 350.7500 -89.7500 Du        
   4493 ****       255.7500 350.7500 -89.5000 Du        
   4494 ****       255.7500 350.7500 -84.2500 Du        
   4495 ****       255.7500 350.7500 -84.0000 Du        
   4496 ****       255.7500 350.7500 -83.7500 Du        
   4497 ****       255.7500 350.7500 -83.5000 Du        
   4498 ****       255.7500 350.7500 -83.2500 Du        
   4499 ****       255.7500 350.7500 -83.0000 Du        
   4500 ****       255.7500 350.7500 -82.7500 Du        
   4501 ****       255.7500 350.7500 -82.5000 Du        
   4502 ****       255.7500 351.0000 -90.0000 Du        
   4503 ****       255.7500 351.0000 -89.7500 Du        
   4504 ****       255.7500 351.2500 -89.7500 Du        
   4505 ****       255.7500 351.5000 -89.7500 Du        
   4506 ****       255.7500 351.7500 -90.0000 Du        
   4507 ****       255.7500 351.7500 -89.7500 Du        
   4508 ****       255.7500 352.0000 -90.0000 Du        
   4509 ****       255.7500 352.0000 -89.7500 Du        
   4510 ****       255.7500 352.2500 -90.0000 Du        
   4511 ****       255.7500 352.2500 -89.7500 Du        
   4512 ****       255.7500 352.5000 -90.0000 Du        
   4513 ****       255.7500 352.5000 -89.7500 Du        
   4514 ****       255.7500 352.7500 -90.0000 Du        
   4515 ****       255.7500 352.7500 -89.7500 Du        
   4516 ****       256.0000 349.0000 -82.5000 Du        
   4517 ****       256.0000 349.0000 -82.2500 Du        
   4518 ****       256.0000 349.0000 -82.0000 Du        
   4519 ****       256.0000 349.0000 -81.7500 Du        
   4520 ****       256.0000 349.2500 -83.0000 Du        
   4521 ****       256.0000 349.2500 -82.7500 Du        
   4522 ****       256.0000 349.2500 -82.5000 Du        
   4523 ****       256.0000 349.2500 -82.2500 Du        
   4524 ****       256.0000 349.2500 -82.0000 Du        
   4525 ****       256.0000 349.2500 -81.7500 Du        
   4526 ****       256.0000 349.2500 -81.5000 Du        
   4527 ****       256.0000 349.5000 -83.2500 Du        
   4528 ****       256.0000 349.5000 -83.0000 Du        
   4529 ****       256.0000 349.5000 -82.7500 Du        
   4530 ****       256.0000 349.5000 -82.5000 Du        
   4531 ****       256.0000 349.5000 -82.2500 Du        
   4532 ****       256.0000 349.5000 -82.0000 Du        
   4533 ****       256.0000 349.5000 -81.7500 Du        
   4534 ****       256.0000 349.5000 -81.5000 Du        
   4535 ****       256.0000 349.5000 -81.2500 Du        
   4536 ****       256.0000 349.7500 -83.7500 Du        
   4537 ****       256.0000 349.7500 -83.5000 Du        
   4538 ****       256.0000 349.7500 -83.2500 Du        
   4539 ****       256.0000 349.7500 -83.0000 Du        
   4540 ****       256.0000 349.7500 -82.7500 Du        
   4541 ****       256.0000 349.7500 -82.5000 Du        
   4542 ****       256.0000 349.7500 -82.2500 Du        
   4543 ****       256.0000 349.7500 -82.0000 Du        
   4544 ****       256.0000 349.7500 -81.7500 Du        
   4545 ****       256.0000 349.7500 -81.5000 Du        
   4546 ****       256.0000 349.7500 -81.2500 Du        
   4547 ****       256.0000 350.0000 -84.0000 Du        
   4548 ****       256.0000 350.0000 -83.7500 Du        
   4549 ****       256.0000 350.0000 -83.5000 Du        
   4550 ****       256.0000 350.0000 -83.2500 Du        
   4551 ****       256.0000 350.0000 -83.0000 Du        
   4552 ****       256.0000 350.0000 -82.7500 Du        
   4553 ****       256.0000 350.0000 -82.5000 Du        
   4554 ****       256.0000 350.0000 -82.2500 Du        
   4555 ****       256.0000 350.0000 -82.0000 Du        
   4556 ****       256.0000 350.0000 -81.7500 Du        
   4557 ****       256.0000 350.0000 -81.5000 Du        
   4558 ****       256.0000 350.0000 -81.2500 Du        
   4559 ****       256.0000 350.2500 -84.2500 Du        
   4560 ****       256.0000 350.2500 -84.0000 Du        
   4561 ****       256.0000 350.2500 -83.7500 Du        
   4562 ****       256.0000 350.2500 -83.5000 Du        
   4563 ****       256.0000 350.2500 -83.2500 Du        
   4564 ****       256.0000 350.2500 -83.0000 Du        
   4565 ****       256.0000 350.2500 -82.7500 Du        
   4566 ****       256.0000 350.2500 -82.5000 Du        
   4567 ****       256.0000 350.2500 -82.2500 Du        
   4568 ****       256.0000 350.2500 -82.0000 Du        
   4569 ****       256.0000 350.2500 -81.7500 Du        
   4570 ****       256.0000 350.2500 -81.5000 Du        
   4571 ****       256.0000 350.5000 -84.2500 Du        
   4572 ****       256.0000 350.5000 -84.0000 Du        
   4573 ****       256.0000 350.5000 -83.7500 Du        
   4574 ****       256.0000 350.5000 -83.5000 Du        
   4575 ****       256.0000 350.5000 -83.2500 Du        
   4576 ****       256.0000 350.5000 -83.0000 Du        
   4577 ****       256.0000 350.5000 -82.7500 Du        
   4578 ****       256.0000 350.5000 -82.5000 Du        
   4579 ****       256.0000 350.5000 -82.2500 Du        
   4580 ****       256.0000 350.5000 -82.0000 Du        
   4581 ****       256.0000 350.5000 -81.7500 Du        
   4582 ****       256.0000 350.7500 -90.0000 Du        
   4583 ****       256.0000 350.7500 -89.7500 Du        
   4584 ****       256.0000 350.7500 -84.2500 Du        
   4585 ****       256.0000 350.7500 -84.0000 Du        
   4586 ****       256.0000 350.7500 -83.7500 Du        
   4587 ****       256.0000 350.7500 -83.5000 Du        
   4588 ****       256.0000 350.7500 -83.2500 Du        
   4589 ****       256.0000 350.7500 -83.0000 Du        
   4590 ****       256.0000 350.7500 -82.7500 Du        
   4591 ****       256.0000 350.7500 -82.5000 Du        
   4592 ****       256.0000 350.7500 -82.2500 Du        
   4593 ****       256.0000 351.0000 -90.0000 Du        
   4594 ****       256.0000 351.0000 -89.7500 Du        
   4595 ****       256.0000 351.7500 -90.0000 Du        
   4596 ****       256.0000 352.0000 -90.0000 Du        
   4597 ****       256.0000 352.5000 -90.0000 Du        
   4598 ****       256.0000 352.7500 -90.0000 Du        
   4599 ****       256.2500 348.7500 -82.2500 Du        
   4600 ****       256.2500 349.0000 -82.7500 Du        
   4601 ****       256.2500 349.0000 -82.5000 Du        
   4602 ****       256.2500 349.0000 -82.2500 Du        
   4603 ****       256.2500 349.0000 -82.0000 Du        
   4604 ****       256.2500 349.0000 -81.7500 Du        
   4605 ****       256.2500 349.2500 -83.2500 Du        
   4606 ****       256.2500 349.2500 -83.0000 Du        
   4607 ****       256.2500 349.2500 -82.7500 Du        
   4608 ****       256.2500 349.2500 -82.5000 Du        
   4609 ****       256.2500 349.2500 -82.2500 Du        
   4610 ****       256.2500 349.2500 -82.0000 Du        
   4611 ****       256.2500 349.2500 -81.7500 Du        
   4612 ****       256.2500 349.2500 -81.5000 Du        
   4613 ****       256.2500 349.5000 -83.7500 Du        
   4614 ****       256.2500 349.5000 -83.5000 Du        
   4615 ****       256.2500 349.5000 -83.2500 Du        
   4616 ****       256.2500 349.5000 -83.0000 Du        
   4617 ****       256.2500 349.5000 -82.7500 Du        
   4618 ****       256.2500 349.5000 -82.5000 Du        
   4619 ****       256.2500 349.5000 -82.2500 Du        
   4620 ****       256.2500 349.5000 -82.0000 Du        
   4621 ****       256.2500 349.5000 -81.7500 Du        
   4622 ****       256.2500 349.5000 -81.5000 Du        
   4623 ****       256.2500 349.5000 -81.2500 Du        
   4624 ****       256.2500 349.7500 -84.2500 Du        
   4625 ****       256.2500 349.7500 -84.0000 Du        
   4626 ****       256.2500 349.7500 -83.7500 Du        
   4627 ****       256.2500 349.7500 -83.5000 Du        
   4628 ****       256.2500 349.7500 -83.2500 Du        
   4629 ****       256.2500 349.7500 -83.0000 Du        
   4630 ****       256.2500 349.7500 -82.7500 Du        
   4631 ****       256.2500 349.7500 -82.5000 Du        
   4632 ****       256.2500 349.7500 -82.2500 Du        
   4633 ****       256.2500 349.7500 -82.0000 Du        
   4634 ****       256.2500 349.7500 -81.7500 Du        
   4635 ****       256.2500 349.7500 -81.5000 Du        
   4636 ****       256.2500 349.7500 -81.2500 Du        
   4637 ****       256.2500 350.0000 -84.5000 Du        
   4638 ****       256.2500 350.0000 -84.2500 Du        
   4639 ****       256.2500 350.0000 -84.0000 Du        
   4640 ****       256.2500 350.0000 -83.7500 Du        
   4641 ****       256.2500 350.0000 -83.5000 Du        
   4642 ****       256.2500 350.0000 -83.2500 Du        
   4643 ****       256.2500 350.0000 -83.0000 Du        
   4644 ****       256.2500 350.0000 -82.7500 Du        
   4645 ****       256.2500 350.0000 -82.5000 Du        
   4646 ****       256.2500 350.0000 -82.2500 Du        
   4647 ****       256.2500 350.0000 -82.0000 Du        
   4648 ****       256.2500 350.0000 -81.7500 Du        
   4649 ****       256.2500 350.0000 -81.5000 Du        
   4650 ****       256.2500 350.2500 -84.5000 Du        
   4651 ****       256.2500 350.2500 -84.2500 Du        
   4652 ****       256.2500 350.2500 -84.0000 Du        
   4653 ****       256.2500 350.2500 -83.7500 Du        
   4654 ****       256.2500 350.2500 -83.5000 Du        
   4655 ****       256.2500 350.2500 -83.2500 Du        
   4656 ****       256.2500 350.2500 -83.0000 Du        
   4657 ****       256.2500 350.2500 -82.7500 Du        
   4658 ****       256.2500 350.2500 -82.5000 Du        
   4659 ****       256.2500 350.2500 -82.2500 Du        
   4660 ****       256.2500 350.2500 -82.0000 Du        
   4661 ****       256.2500 350.2500 -81.7500 Du        
   4662 ****       256.2500 350.5000 -84.2500 Du        
   4663 ****       256.2500 350.5000 -84.0000 Du        
   4664 ****       256.2500 350.5000 -83.7500 Du        
   4665 ****       256.2500 350.5000 -83.5000 Du        
   4666 ****       256.2500 350.5000 -83.2500 Du        
   4667 ****       256.2500 350.5000 -83.0000 Du        
   4668 ****       256.2500 350.5000 -82.7500 Du        
   4669 ****       256.2500 350.5000 -82.5000 Du        
   4670 ****       256.2500 350.5000 -82.2500 Du        
   4671 ****       256.2500 350.5000 -82.0000 Du        
   4672 ****       256.2500 350.7500 -90.0000 Du        
   4673 ****       256.2500 350.7500 -84.0000 Du        
   4674 ****       256.2500 350.7500 -83.7500 Du        
   4675 ****       256.2500 350.7500 -83.5000 Du        
   4676 ****       256.2500 350.7500 -83.2500 Du        
   4677 ****       256.2500 350.7500 -83.0000 Du        
   4678 ****       256.2500 350.7500 -82.7500 Du        
   4679 ****       256.2500 350.7500 -82.5000 Du        
   4680 ****       256.5000 348.7500 -82.5000 Du        
   4681 ****       256.5000 348.7500 -82.2500 Du        
   4682 ****       256.5000 348.7500 -82.0000 Du        
   4683 ****       256.5000 349.0000 -83.0000 Du        
   4684 ****       256.5000 349.0000 -82.7500 Du        
   4685 ****       256.5000 349.0000 -82.5000 Du        
   4686 ****       256.5000 349.0000 -82.2500 Du        
   4687 ****       256.5000 349.0000 -82.0000 Du        
   4688 ****       256.5000 349.0000 -81.7500 Du        
   4689 ****       256.5000 349.2500 -83.7500 Du        
   4690 ****       256.5000 349.2500 -83.5000 Du        
   4691 ****       256.5000 349.2500 -83.2500 Du        
   4692 ****       256.5000 349.2500 -83.0000 Du        
   4693 ****       256.5000 349.2500 -82.7500 Du        
   4694 ****       256.5000 349.2500 -82.5000 Du        
   4695 ****       256.5000 349.2500 -82.2500 Du        
   4696 ****       256.5000 349.2500 -82.0000 Du        
   4697 ****       256.5000 349.2500 -81.7500 Du        
   4698 ****       256.5000 349.2500 -81.5000 Du        
   4699 ****       256.5000 349.5000 -84.5000 Du        
   4700 ****       256.5000 349.5000 -84.2500 Du        
   4701 ****       256.5000 349.5000 -84.0000 Du        
   4702 ****       256.5000 349.5000 -83.7500 Du        
   4703 ****       256.5000 349.5000 -83.5000 Du        
   4704 ****       256.5000 349.5000 -83.2500 Du        
   4705 ****       256.5000 349.5000 -83.0000 Du        
   4706 ****       256.5000 349.5000 -82.7500 Du        
   4707 ****       256.5000 349.5000 -82.5000 Du        
   4708 ****       256.5000 349.5000 -82.2500 Du        
   4709 ****       256.5000 349.5000 -82.0000 Du        
   4710 ****       256.5000 349.5000 -81.7500 Du        
   4711 ****       256.5000 349.5000 -81.5000 Du        
   4712 ****       256.5000 349.7500 -84.5000 Du        
   4713 ****       256.5000 349.7500 -84.2500 Du        
   4714 ****       256.5000 349.7500 -84.0000 Du        
   4715 ****       256.5000 349.7500 -83.7500 Du        
   4716 ****       256.5000 349.7500 -83.5000 Du        
   4717 ****       256.5000 349.7500 -83.2500 Du        
   4718 ****       256.5000 349.7500 -83.0000 Du        
   4719 ****       256.5000 349.7500 -82.7500 Du        
   4720 ****       256.5000 349.7500 -82.5000 Du        
   4721 ****       256.5000 349.7500 -82.2500 Du        
   4722 ****       256.5000 349.7500 -82.0000 Du        
   4723 ****       256.5000 349.7500 -81.7500 Du        
   4724 ****       256.5000 349.7500 -81.5000 Du        
   4725 ****       256.5000 350.0000 -84.7500 Du        
   4726 ****       256.5000 350.0000 -84.5000 Du        
   4727 ****       256.5000 350.0000 -84.2500 Du        
   4728 ****       256.5000 350.0000 -84.0000 Du        
   4729 ****       256.5000 350.0000 -83.7500 Du        
   4730 ****       256.5000 350.0000 -83.5000 Du        
   4731 ****       256.5000 350.0000 -83.2500 Du        
   4732 ****       256.5000 350.0000 -83.0000 Du        
   4733 ****       256.5000 350.0000 -82.7500 Du        
   4734 ****       256.5000 350.0000 -82.5000 Du        
   4735 ****       256.5000 350.0000 -82.2500 Du        
   4736 ****       256.5000 350.0000 -82.0000 Du        
   4737 ****       256.5000 350.0000 -81.7500 Du        
   4738 ****       256.5000 350.0000 -81.5000 Du        
   4739 ****       256.5000 350.2500 -84.5000 Du        
   4740 ****       256.5000 350.2500 -84.2500 Du        
   4741 ****       256.5000 350.2500 -84.0000 Du        
   4742 ****       256.5000 350.2500 -83.7500 Du        
   4743 ****       256.5000 350.2500 -83.5000 Du        
   4744 ****       256.5000 350.2500 -83.2500 Du        
   4745 ****       256.5000 350.2500 -83.0000 Du        
   4746 ****       256.5000 350.2500 -82.7500 Du        
   4747 ****       256.5000 350.2500 -82.5000 Du        
   4748 ****       256.5000 350.2500 -82.2500 Du        
   4749 ****       256.5000 350.2500 -82.0000 Du        
   4750 ****       256.5000 350.5000 -84.2500 Du        
   4751 ****       256.5000 350.5000 -84.0000 Du        
   4752 ****       256.5000 350.5000 -83.7500 Du        
   4753 ****       256.5000 350.5000 -83.5000 Du        
   4754 ****       256.5000 350.5000 -83.2500 Du        
   4755 ****       256.5000 350.5000 -83.0000 Du        
   4756 ****       256.5000 350.5000 -82.7500 Du        
   4757 ****       256.5000 350.5000 -82.5000 Du        
   4758 ****       256.5000 350.5000 -82.2500 Du        
   4759 ****       256.5000 350.7500 -83.7500 Du        
   4760 ****       256.5000 350.7500 -83.5000 Du        
   4761 ****       256.5000 350.7500 -83.2500 Du        
   4762 ****       256.5000 350.7500 -83.0000 Du        
   4763 ****       256.5000 350.7500 -82.7500 Du        
   4764 ****       256.5000 350.7500 -82.5000 Du        
   4765 ****       256.7500 348.7500 -82.7500 Du        
   4766 ****       256.7500 348.7500 -82.5000 Du        
   4767 ****       256.7500 348.7500 -82.2500 Du        
   4768 ****       256.7500 348.7500 -82.0000 Du        
   4769 ****       256.7500 349.0000 -83.5000 Du        
   4770 ****       256.7500 349.0000 -83.2500 Du        
   4771 ****       256.7500 349.0000 -83.0000 Du        
   4772 ****       256.7500 349.0000 -82.7500 Du        
   4773 ****       256.7500 349.0000 -82.5000 Du        
   4774 ****       256.7500 349.0000 -82.2500 Du        
   4775 ****       256.7500 349.0000 -82.0000 Du        
   4776 ****       256.7500 349.0000 -81.7500 Du        
   4777 ****       256.7500 349.2500 -84.7500 Du        
   4778 ****       256.7500 349.2500 -84.5000 Du        
   4779 ****       256.7500 349.2500 -84.2500 Du        
   4780 ****       256.7500 349.2500 -84.0000 Du        
   4781 ****       256.7500 349.2500 -83.7500 Du        
   4782 ****       256.7500 349.2500 -83.5000 Du        
   4783 ****       256.7500 349.2500 -83.2500 Du        
   4784 ****       256.7500 349.2500 -83.0000 Du        
   4785 ****       256.7500 349.2500 -82.7500 Du        
   4786 ****       256.7500 349.2500 -82.5000 Du        
   4787 ****       256.7500 349.2500 -82.2500 Du        
   4788 ****       256.7500 349.2500 -82.0000 Du        
   4789 ****       256.7500 349.2500 -81.7500 Du        
   4790 ****       256.7500 349.2500 -81.5000 Du        
   4791 ****       256.7500 349.5000 -85.2500 Du        
   4792 ****       256.7500 349.5000 -85.0000 Du        
   4793 ****       256.7500 349.5000 -84.7500 Du        
   4794 ****       256.7500 349.5000 -84.5000 Du        
   4795 ****       256.7500 349.5000 -84.2500 Du        
   4796 ****       256.7500 349.5000 -84.0000 Du        
   4797 ****       256.7500 349.5000 -83.7500 Du        
   4798 ****       256.7500 349.5000 -83.5000 Du        
   4799 ****       256.7500 349.5000 -83.2500 Du        
   4800 ****       256.7500 349.5000 -83.0000 Du        
   4801 ****       256.7500 349.5000 -82.7500 Du        
   4802 ****       256.7500 349.5000 -82.5000 Du        
   4803 ****       256.7500 349.5000 -82.2500 Du        
   4804 ****       256.7500 349.5000 -82.0000 Du        
   4805 ****       256.7500 349.5000 -81.7500 Du        
   4806 ****       256.7500 349.5000 -81.5000 Du        
   4807 ****       256.7500 349.7500 -85.2500 Du        
   4808 ****       256.7500 349.7500 -85.0000 Du        
   4809 ****       256.7500 349.7500 -84.7500 Du        
   4810 ****       256.7500 349.7500 -84.5000 Du        
   4811 ****       256.7500 349.7500 -84.2500 Du        
   4812 ****       256.7500 349.7500 -84.0000 Du        
   4813 ****       256.7500 349.7500 -83.7500 Du        
   4814 ****       256.7500 349.7500 -83.5000 Du        
   4815 ****       256.7500 349.7500 -83.2500 Du        
   4816 ****       256.7500 349.7500 -83.0000 Du        
   4817 ****       256.7500 349.7500 -82.7500 Du        
   4818 ****       256.7500 349.7500 -82.5000 Du        
   4819 ****       256.7500 349.7500 -82.2500 Du        
   4820 ****       256.7500 349.7500 -82.0000 Du        
   4821 ****       256.7500 349.7500 -81.7500 Du        
   4822 ****       256.7500 349.7500 -81.5000 Du        
   4823 ****       256.7500 350.0000 -84.7500 Du        
   4824 ****       256.7500 350.0000 -84.5000 Du        
   4825 ****       256.7500 350.0000 -84.2500 Du        
   4826 ****       256.7500 350.0000 -84.0000 Du        
   4827 ****       256.7500 350.0000 -83.7500 Du        
   4828 ****       256.7500 350.0000 -83.5000 Du        
   4829 ****       256.7500 350.0000 -83.2500 Du        
   4830 ****       256.7500 350.0000 -83.0000 Du        
   4831 ****       256.7500 350.0000 -82.7500 Du        
   4832 ****       256.7500 350.0000 -82.5000 Du        
   4833 ****       256.7500 350.0000 -82.2500 Du        
   4834 ****       256.7500 350.0000 -82.0000 Du        
   4835 ****       256.7500 350.0000 -81.7500 Du        
   4836 ****       256.7500 350.2500 -84.5000 Du        
   4837 ****       256.7500 350.2500 -84.2500 Du        
   4838 ****       256.7500 350.2500 -84.0000 Du        
   4839 ****       256.7500 350.2500 -83.7500 Du        
   4840 ****       256.7500 350.2500 -83.5000 Du        
   4841 ****       256.7500 350.2500 -83.2500 Du        
   4842 ****       256.7500 350.2500 -83.0000 Du        
   4843 ****       256.7500 350.2500 -82.7500 Du        
   4844 ****       256.7500 350.2500 -82.5000 Du        
   4845 ****       256.7500 350.2500 -82.2500 Du        
   4846 ****       256.7500 350.5000 -84.0000 Du        
   4847 ****       256.7500 350.5000 -83.7500 Du        
   4848 ****       256.7500 350.5000 -83.5000 Du        
   4849 ****       256.7500 350.5000 -83.2500 Du        
   4850 ****       256.7500 350.5000 -83.0000 Du        
   4851 ****       256.7500 350.5000 -82.7500 Du        
   4852 ****       256.7500 350.5000 -82.5000 Du        
   4853 ****       256.7500 350.7500 -83.5000 Du        
   4854 ****       256.7500 350.7500 -83.2500 Du        
   4855 ****       256.7500 350.7500 -83.0000 Du        
   4856 ****       256.7500 350.7500 -82.7500 Du        
   4857 ****       257.0000 348.7500 -83.0000 Du        
   4858 ****       257.0000 348.7500 -82.7500 Du        
   4859 ****       257.0000 348.7500 -82.5000 Du        
   4860 ****       257.0000 348.7500 -82.2500 Du        
   4861 ****       257.0000 348.7500 -82.0000 Du        
   4862 ****       257.0000 348.7500 -81.7500 Du        
   4863 ****       257.0000 349.0000 -85.7500 Du        
   4864 ****       257.0000 349.0000 -85.5000 Du        
   4865 ****       257.0000 349.0000 -85.2500 Du        
   4866 ****       257.0000 349.0000 -85.0000 Du        
   4867 ****       257.0000 349.0000 -84.7500 Du        
   4868 ****       257.0000 349.0000 -84.5000 Du        
   4869 ****       257.0000 349.0000 -84.2500 Du        
   4870 ****       257.0000 349.0000 -84.0000 Du        
   4871 ****       257.0000 349.0000 -83.7500 Du        
   4872 ****       257.0000 349.0000 -83.5000 Du        
   4873 ****       257.0000 349.0000 -83.2500 Du        
   4874 ****       257.0000 349.0000 -83.0000 Du        
   4875 ****       257.0000 349.0000 -82.7500 Du        
   4876 ****       257.0000 349.0000 -82.5000 Du        
   4877 ****       257.0000 349.0000 -82.2500 Du        
   4878 ****       257.0000 349.0000 -82.0000 Du        
   4879 ****       257.0000 349.0000 -81.7500 Du        
   4880 ****       257.0000 349.2500 -85.7500 Du        
   4881 ****       257.0000 349.2500 -85.5000 Du        
   4882 ****       257.0000 349.2500 -85.2500 Du        
   4883 ****       257.0000 349.2500 -85.0000 Du        
   4884 ****       257.0000 349.2500 -84.7500 Du        
   4885 ****       257.0000 349.2500 -84.5000 Du        
   4886 ****       257.0000 349.2500 -84.2500 Du        
   4887 ****       257.0000 349.2500 -84.0000 Du        
   4888 ****       257.0000 349.2500 -83.7500 Du        
   4889 ****       257.0000 349.2500 -83.5000 Du        
   4890 ****       257.0000 349.2500 -83.2500 Du        
   4891 ****       257.0000 349.2500 -83.0000 Du        
   4892 ****       257.0000 349.2500 -82.7500 Du        
   4893 ****       257.0000 349.2500 -82.5000 Du        
   4894 ****       257.0000 349.2500 -82.2500 Du        
   4895 ****       257.0000 349.2500 -82.0000 Du        
   4896 ****       257.0000 349.2500 -81.7500 Du        
   4897 ****       257.0000 349.2500 -81.5000 Du        
   4898 ****       257.0000 349.5000 -85.5000 Du        
   4899 ****       257.0000 349.5000 -85.2500 Du        
   4900 ****       257.0000 349.5000 -85.0000 Du        
   4901 ****       257.0000 349.5000 -84.7500 Du        
   4902 ****       257.0000 349.5000 -84.5000 Du        
   4903 ****       257.0000 349.5000 -84.2500 Du        
   4904 ****       257.0000 349.5000 -84.0000 Du        
   4905 ****       257.0000 349.5000 -83.7500 Du        
   4906 ****       257.0000 349.5000 -83.5000 Du        
   4907 ****       257.0000 349.5000 -83.2500 Du        
   4908 ****       257.0000 349.5000 -83.0000 Du        
   4909 ****       257.0000 349.5000 -82.7500 Du        
   4910 ****       257.0000 349.5000 -82.5000 Du        
   4911 ****       257.0000 349.5000 -82.2500 Du        
   4912 ****       257.0000 349.5000 -82.0000 Du        
   4913 ****       257.0000 349.5000 -81.7500 Du        
   4914 ****       257.0000 349.7500 -85.5000 Du        
   4915 ****       257.0000 349.7500 -85.2500 Du        
   4916 ****       257.0000 349.7500 -85.0000 Du        
   4917 ****       257.0000 349.7500 -84.7500 Du        
   4918 ****       257.0000 349.7500 -84.5000 Du        
   4919 ****       257.0000 349.7500 -84.2500 Du        
   4920 ****       257.0000 349.7500 -84.0000 Du        
   4921 ****       257.0000 349.7500 -83.7500 Du        
   4922 ****       257.0000 349.7500 -83.5000 Du        
   4923 ****       257.0000 349.7500 -83.2500 Du        
   4924 ****       257.0000 349.7500 -83.0000 Du        
   4925 ****       257.0000 349.7500 -82.7500 Du        
   4926 ****       257.0000 349.7500 -82.5000 Du        
   4927 ****       257.0000 349.7500 -82.2500 Du        
   4928 ****       257.0000 349.7500 -82.0000 Du        
   4929 ****       257.0000 349.7500 -81.7500 Du        
   4930 ****       257.0000 350.0000 -85.0000 Du        
   4931 ****       257.0000 350.0000 -84.7500 Du        
   4932 ****       257.0000 350.0000 -84.5000 Du        
   4933 ****       257.0000 350.0000 -84.2500 Du        
   4934 ****       257.0000 350.0000 -84.0000 Du        
   4935 ****       257.0000 350.0000 -83.7500 Du        
   4936 ****       257.0000 350.0000 -83.5000 Du        
   4937 ****       257.0000 350.0000 -83.2500 Du        
   4938 ****       257.0000 350.0000 -83.0000 Du        
   4939 ****       257.0000 350.0000 -82.7500 Du        
   4940 ****       257.0000 350.0000 -82.5000 Du        
   4941 ****       257.0000 350.0000 -82.2500 Du        
   4942 ****       257.0000 350.2500 -84.2500 Du        
   4943 ****       257.0000 350.2500 -84.0000 Du        
   4944 ****       257.0000 350.2500 -83.7500 Du        
   4945 ****       257.0000 350.2500 -83.5000 Du        
   4946 ****       257.0000 350.2500 -83.2500 Du        
   4947 ****       257.0000 350.2500 -83.0000 Du        
   4948 ****       257.0000 350.2500 -82.7500 Du        
   4949 ****       257.0000 350.2500 -82.5000 Du        
   4950 ****       257.0000 350.5000 -83.7500 Du        
   4951 ****       257.0000 350.5000 -83.5000 Du        
   4952 ****       257.0000 350.5000 -83.2500 Du        
   4953 ****       257.0000 350.5000 -83.0000 Du        
   4954 ****       257.0000 350.7500 -83.5000 Du        
   4955 ****       257.0000 350.7500 -83.2500 Du        
   4956 ****       257.2500 348.7500 -86.0000 Du        
   4957 ****       257.2500 348.7500 -85.7500 Du        
   4958 ****       257.2500 348.7500 -85.5000 Du        
   4959 ****       257.2500 348.7500 -85.2500 Du        
   4960 ****       257.2500 348.7500 -83.0000 Du        
   4961 ****       257.2500 348.7500 -82.7500 Du        
   4962 ****       257.2500 348.7500 -82.5000 Du        
   4963 ****       257.2500 348.7500 -82.2500 Du        
   4964 ****       257.2500 348.7500 -82.0000 Du        
   4965 ****       257.2500 348.7500 -81.7500 Du        
   4966 ****       257.2500 349.0000 -86.2500 Du        
   4967 ****       257.2500 349.0000 -86.0000 Du        
   4968 ****       257.2500 349.0000 -85.7500 Du        
   4969 ****       257.2500 349.0000 -85.5000 Du        
   4970 ****       257.2500 349.0000 -85.2500 Du        
   4971 ****       257.2500 349.0000 -85.0000 Du        
   4972 ****       257.2500 349.0000 -84.7500 Du        
   4973 ****       257.2500 349.0000 -84.5000 Du        
   4974 ****       257.2500 349.0000 -84.2500 Du        
   4975 ****       257.2500 349.0000 -84.0000 Du        
   4976 ****       257.2500 349.0000 -83.7500 Du        
   4977 ****       257.2500 349.0000 -83.5000 Du        
   4978 ****       257.2500 349.0000 -83.2500 Du        
   4979 ****       257.2500 349.0000 -83.0000 Du        
   4980 ****       257.2500 349.0000 -82.7500 Du        
   4981 ****       257.2500 349.0000 -82.5000 Du        
   4982 ****       257.2500 349.0000 -82.2500 Du        
   4983 ****       257.2500 349.0000 -82.0000 Du        
   4984 ****       257.2500 349.0000 -81.7500 Du        
   4985 ****       257.2500 349.2500 -86.2500 Du        
   4986 ****       257.2500 349.2500 -86.0000 Du        
   4987 ****       257.2500 349.2500 -85.7500 Du        
   4988 ****       257.2500 349.2500 -85.5000 Du        
   4989 ****       257.2500 349.2500 -85.2500 Du        
   4990 ****       257.2500 349.2500 -85.0000 Du        
   4991 ****       257.2500 349.2500 -84.7500 Du        
   4992 ****       257.2500 349.2500 -84.5000 Du        
   4993 ****       257.2500 349.2500 -84.2500 Du        
   4994 ****       257.2500 349.2500 -84.0000 Du        
   4995 ****       257.2500 349.2500 -83.7500 Du        
   4996 ****       257.2500 349.2500 -83.5000 Du        
   4997 ****       257.2500 349.2500 -83.2500 Du        
   4998 ****       257.2500 349.2500 -83.0000 Du        
   4999 ****       257.2500 349.2500 -82.7500 Du        
   5000 ****       257.2500 349.2500 -82.5000 Du        
   5001 ****       257.2500 349.2500 -82.2500 Du        
   5002 ****       257.2500 349.2500 -82.0000 Du        
   5003 ****       257.2500 349.2500 -81.7500 Du        
   5004 ****       257.2500 349.5000 -85.7500 Du        
   5005 ****       257.2500 349.5000 -85.5000 Du        
   5006 ****       257.2500 349.5000 -85.2500 Du        
   5007 ****       257.2500 349.5000 -85.0000 Du        
   5008 ****       257.2500 349.5000 -84.7500 Du        
   5009 ****       257.2500 349.5000 -84.5000 Du        
   5010 ****       257.2500 349.5000 -84.2500 Du        
   5011 ****       257.2500 349.5000 -84.0000 Du        
   5012 ****       257.2500 349.5000 -83.7500 Du        
   5013 ****       257.2500 349.5000 -83.5000 Du        
   5014 ****       257.2500 349.5000 -83.2500 Du        
   5015 ****       257.2500 349.5000 -83.0000 Du        
   5016 ****       257.2500 349.5000 -82.7500 Du        
   5017 ****       257.2500 349.5000 -82.5000 Du        
   5018 ****       257.2500 349.5000 -82.2500 Du        
   5019 ****       257.2500 349.5000 -82.0000 Du        
   5020 ****       257.2500 349.7500 -85.5000 Du        
   5021 ****       257.2500 349.7500 -85.2500 Du        
   5022 ****       257.2500 349.7500 -85.0000 Du        
   5023 ****       257.2500 349.7500 -84.7500 Du        
   5024 ****       257.2500 349.7500 -84.5000 Du        
   5025 ****       257.2500 349.7500 -84.2500 Du        
   5026 ****       257.2500 349.7500 -84.0000 Du        
   5027 ****       257.2500 349.7500 -83.7500 Du        
   5028 ****       257.2500 349.7500 -83.5000 Du        
   5029 ****       257.2500 349.7500 -83.2500 Du        
   5030 ****       257.2500 349.7500 -83.0000 Du        
   5031 ****       257.2500 349.7500 -82.7500 Du        
   5032 ****       257.2500 349.7500 -82.5000 Du        
   5033 ****       257.2500 349.7500 -82.2500 Du        
   5034 ****       257.2500 350.0000 -84.7500 Du        
   5035 ****       257.2500 350.0000 -84.5000 Du        
   5036 ****       257.2500 350.0000 -84.2500 Du        
   5037 ****       257.2500 350.0000 -84.0000 Du        
   5038 ****       257.2500 350.0000 -83.7500 Du        
   5039 ****       257.2500 350.0000 -83.5000 Du        
   5040 ****       257.2500 350.0000 -83.2500 Du        
   5041 ****       257.2500 350.0000 -83.0000 Du        
   5042 ****       257.2500 350.0000 -82.7500 Du        
   5043 ****       257.2500 350.2500 -84.2500 Du        
   5044 ****       257.2500 350.2500 -84.0000 Du        
   5045 ****       257.2500 350.2500 -83.7500 Du        
   5046 ****       257.2500 350.2500 -83.5000 Du        
   5047 ****       257.2500 350.2500 -83.2500 Du        
   5048 ****       257.2500 350.5000 -83.7500 Du        
   5049 ****       257.2500 350.5000 -83.5000 Du        
   5050 ****       257.5000 348.2500 -86.5000 Du        
   5051 ****       257.5000 348.2500 -86.2500 Du        
   5052 ****       257.5000 348.2500 -86.0000 Du        
   5053 ****       257.5000 348.5000 -86.5000 Du        
   5054 ****       257.5000 348.5000 -86.2500 Du        
   5055 ****       257.5000 348.5000 -86.0000 Du        
   5056 ****       257.5000 348.7500 -86.5000 Du        
   5057 ****       257.5000 348.7500 -86.2500 Du        
   5058 ****       257.5000 348.7500 -86.0000 Du        
   5059 ****       257.5000 348.7500 -85.7500 Du        
   5060 ****       257.5000 348.7500 -85.5000 Du        
   5061 ****       257.5000 348.7500 -83.0000 Du        
   5062 ****       257.5000 348.7500 -82.7500 Du        
   5063 ****       257.5000 348.7500 -82.5000 Du        
   5064 ****       257.5000 348.7500 -82.2500 Du        
   5065 ****       257.5000 348.7500 -82.0000 Du        
   5066 ****       257.5000 349.0000 -86.7500 Du        
   5067 ****       257.5000 349.0000 -86.5000 Du        
   5068 ****       257.5000 349.0000 -86.2500 Du        
   5069 ****       257.5000 349.0000 -86.0000 Du        
   5070 ****       257.5000 349.0000 -85.7500 Du        
   5071 ****       257.5000 349.0000 -85.5000 Du        
   5072 ****       257.5000 349.0000 -85.2500 Du        
   5073 ****       257.5000 349.0000 -85.0000 Du        
   5074 ****       257.5000 349.0000 -84.7500 Du        
   5075 ****       257.5000 349.0000 -84.5000 Du        
   5076 ****       257.5000 349.0000 -84.2500 Du        
   5077 ****       257.5000 349.0000 -84.0000 Du        
   5078 ****       257.5000 349.0000 -83.7500 Du        
   5079 ****       257.5000 349.0000 -83.5000 Du        
   5080 ****       257.5000 349.0000 -83.2500 Du        
   5081 ****       257.5000 349.0000 -83.0000 Du        
   5082 ****       257.5000 349.0000 -82.7500 Du        
   5083 ****       257.5000 349.0000 -82.5000 Du        
   5084 ****       257.5000 349.0000 -82.2500 Du        
   5085 ****       257.5000 349.0000 -82.0000 Du        
   5086 ****       257.5000 349.2500 -86.5000 Du        
   5087 ****       257.5000 349.2500 -86.2500 Du        
   5088 ****       257.5000 349.2500 -86.0000 Du        
   5089 ****       257.5000 349.2500 -85.7500 Du        
   5090 ****       257.5000 349.2500 -85.5000 Du        
   5091 ****       257.5000 349.2500 -85.2500 Du        
   5092 ****       257.5000 349.2500 -85.0000 Du        
   5093 ****       257.5000 349.2500 -84.7500 Du        
   5094 ****       257.5000 349.2500 -84.5000 Du        
   5095 ****       257.5000 349.2500 -84.2500 Du        
   5096 ****       257.5000 349.2500 -84.0000 Du        
   5097 ****       257.5000 349.2500 -83.7500 Du        
   5098 ****       257.5000 349.2500 -83.5000 Du        
   5099 ****       257.5000 349.2500 -83.2500 Du        
   5100 ****       257.5000 349.2500 -83.0000 Du        
   5101 ****       257.5000 349.2500 -82.7500 Du        
   5102 ****       257.5000 349.2500 -82.5000 Du        
   5103 ****       257.5000 349.2500 -82.2500 Du        
   5104 ****       257.5000 349.2500 -82.0000 Du        
   5105 ****       257.5000 349.5000 -86.0000 Du        
   5106 ****       257.5000 349.5000 -85.7500 Du        
   5107 ****       257.5000 349.5000 -85.5000 Du        
   5108 ****       257.5000 349.5000 -85.2500 Du        
   5109 ****       257.5000 349.5000 -85.0000 Du        
   5110 ****       257.5000 349.5000 -84.7500 Du        
   5111 ****       257.5000 349.5000 -84.5000 Du        
   5112 ****       257.5000 349.5000 -84.2500 Du        
   5113 ****       257.5000 349.5000 -84.0000 Du        
   5114 ****       257.5000 349.5000 -83.7500 Du        
   5115 ****       257.5000 349.5000 -83.5000 Du        
   5116 ****       257.5000 349.5000 -83.2500 Du        
   5117 ****       257.5000 349.5000 -83.0000 Du        
   5118 ****       257.5000 349.5000 -82.7500 Du        
   5119 ****       257.5000 349.7500 -85.2500 Du        
   5120 ****       257.5000 349.7500 -85.0000 Du        
   5121 ****       257.5000 349.7500 -84.7500 Du        
   5122 ****       257.5000 349.7500 -84.5000 Du        
   5123 ****       257.5000 349.7500 -84.2500 Du        
   5124 ****       257.5000 349.7500 -84.0000 Du        
   5125 ****       257.5000 349.7500 -83.7500 Du        
   5126 ****       257.5000 349.7500 -83.5000 Du        
   5127 ****       257.5000 349.7500 -83.2500 Du        
   5128 ****       257.5000 349.7500 -83.0000 Du        
   5129 ****       257.5000 350.0000 -84.7500 Du        
   5130 ****       257.5000 350.0000 -84.5000 Du        
   5131 ****       257.5000 350.0000 -84.2500 Du        
   5132 ****       257.5000 350.0000 -84.0000 Du        
   5133 ****       257.5000 350.0000 -83.7500 Du        
   5134 ****       257.5000 350.0000 -83.5000 Du        
   5135 ****       257.5000 350.0000 -83.2500 Du        
   5136 ****       257.5000 350.2500 -84.2500 Du        
   5137 ****       257.5000 350.2500 -84.0000 Du        
   5138 ****       257.5000 350.2500 -83.7500 Du        
   5139 ****       257.5000 350.2500 -83.5000 Du        
   5140 ****       257.7500 346.5000 -87.5000 Du        
   5141 ****       257.7500 346.7500 -87.7500 Du        
   5142 ****       257.7500 346.7500 -87.5000 Du        
   5143 ****       257.7500 346.7500 -87.2500 Du        
   5144 ****       257.7500 346.7500 -87.0000 Du        
   5145 ****       257.7500 347.0000 -87.7500 Du        
   5146 ****       257.7500 347.0000 -87.5000 Du        
   5147 ****       257.7500 347.0000 -87.2500 Du        
   5148 ****       257.7500 347.0000 -87.0000 Du        
   5149 ****       257.7500 347.0000 -86.7500 Du        
   5150 ****       257.7500 347.2500 -87.5000 Du        
   5151 ****       257.7500 347.2500 -87.2500 Du        
   5152 ****       257.7500 347.2500 -87.0000 Du        
   5153 ****       257.7500 347.2500 -86.7500 Du        
   5154 ****       257.7500 347.2500 -86.5000 Du        
   5155 ****       257.7500 347.5000 -87.5000 Du        
   5156 ****       257.7500 347.5000 -87.2500 Du        
   5157 ****       257.7500 347.5000 -87.0000 Du        
   5158 ****       257.7500 347.5000 -86.7500 Du        
   5159 ****       257.7500 347.5000 -86.5000 Du        
   5160 ****       257.7500 347.7500 -87.2500 Du        
   5161 ****       257.7500 347.7500 -87.0000 Du        
   5162 ****       257.7500 347.7500 -86.7500 Du        
   5163 ****       257.7500 347.7500 -86.5000 Du        
   5164 ****       257.7500 348.0000 -87.2500 Du        
   5165 ****       257.7500 348.0000 -87.0000 Du        
   5166 ****       257.7500 348.0000 -86.7500 Du        
   5167 ****       257.7500 348.0000 -86.5000 Du        
   5168 ****       257.7500 348.2500 -87.2500 Du        
   5169 ****       257.7500 348.2500 -87.0000 Du        
   5170 ****       257.7500 348.2500 -86.7500 Du        
   5171 ****       257.7500 348.2500 -86.5000 Du        
   5172 ****       257.7500 348.2500 -86.2500 Du        
   5173 ****       257.7500 348.5000 -87.0000 Du        
   5174 ****       257.7500 348.5000 -86.7500 Du        
   5175 ****       257.7500 348.5000 -86.5000 Du        
   5176 ****       257.7500 348.5000 -86.2500 Du        
   5177 ****       257.7500 348.5000 -82.2500 Du        
   5178 ****       257.7500 348.7500 -87.2500 Du        
   5179 ****       257.7500 348.7500 -87.0000 Du        
   5180 ****       257.7500 348.7500 -86.7500 Du        
   5181 ****       257.7500 348.7500 -86.5000 Du        
   5182 ****       257.7500 348.7500 -86.2500 Du        
   5183 ****       257.7500 348.7500 -86.0000 Du        
   5184 ****       257.7500 348.7500 -83.0000 Du        
   5185 ****       257.7500 348.7500 -82.7500 Du        
   5186 ****       257.7500 348.7500 -82.5000 Du        
   5187 ****       257.7500 348.7500 -82.2500 Du        
   5188 ****       257.7500 348.7500 -82.0000 Du        
   5189 ****       257.7500 349.0000 -87.0000 Du        
   5190 ****       257.7500 349.0000 -86.7500 Du        
   5191 ****       257.7500 349.0000 -86.5000 Du        
   5192 ****       257.7500 349.0000 -86.2500 Du        
   5193 ****       257.7500 349.0000 -86.0000 Du        
   5194 ****       257.7500 349.0000 -83.5000 Du        
   5195 ****       257.7500 349.0000 -83.2500 Du        
   5196 ****       257.7500 349.0000 -83.0000 Du        
   5197 ****       257.7500 349.0000 -82.7500 Du        
   5198 ****       257.7500 349.0000 -82.5000 Du        
   5199 ****       257.7500 349.0000 -82.2500 Du        
   5200 ****       257.7500 349.2500 -86.5000 Du        
   5201 ****       257.7500 349.2500 -86.2500 Du        
   5202 ****       257.7500 349.2500 -86.0000 Du        
   5203 ****       257.7500 349.2500 -85.7500 Du        
   5204 ****       257.7500 349.2500 -84.2500 Du        
   5205 ****       257.7500 349.2500 -84.0000 Du        
   5206 ****       257.7500 349.2500 -83.7500 Du        
   5207 ****       257.7500 349.2500 -83.5000 Du        
   5208 ****       257.7500 349.2500 -83.2500 Du        
   5209 ****       257.7500 349.2500 -83.0000 Du        
   5210 ****       257.7500 349.2500 -82.7500 Du        
   5211 ****       257.7500 349.5000 -85.2500 Du        
   5212 ****       257.7500 349.5000 -85.0000 Du        
   5213 ****       257.7500 349.5000 -84.7500 Du        
   5214 ****       257.7500 349.5000 -84.5000 Du        
   5215 ****       257.7500 349.5000 -84.2500 Du        
   5216 ****       257.7500 349.5000 -84.0000 Du        
   5217 ****       257.7500 349.5000 -83.7500 Du        
   5218 ****       257.7500 349.5000 -83.5000 Du        
   5219 ****       257.7500 349.5000 -83.2500 Du        
   5220 ****       257.7500 349.7500 -85.0000 Du        
   5221 ****       257.7500 349.7500 -84.7500 Du        
   5222 ****       257.7500 349.7500 -84.5000 Du        
   5223 ****       257.7500 349.7500 -84.2500 Du        
   5224 ****       257.7500 349.7500 -84.0000 Du        
   5225 ****       257.7500 349.7500 -83.7500 Du        
   5226 ****       257.7500 349.7500 -83.5000 Du        
   5227 ****       257.7500 350.0000 -84.7500 Du        
   5228 ****       257.7500 350.0000 -84.5000 Du        
   5229 ****       257.7500 350.0000 -84.2500 Du        
   5230 ****       257.7500 350.0000 -84.0000 Du        
   5231 ****       257.7500 350.0000 -83.7500 Du        
   5232 ****       257.7500 350.2500 -84.0000 Du        
   5233 ****       258.0000 346.0000 -87.5000 Du        
   5234 ****       258.0000 346.0000 -87.2500 Du        
   5235 ****       258.0000 346.2500 -87.5000 Du        
   5236 ****       258.0000 346.2500 -87.2500 Du        
   5237 ****       258.0000 346.2500 -87.0000 Du        
   5238 ****       258.0000 346.5000 -87.5000 Du        
   5239 ****       258.0000 346.5000 -87.2500 Du        
   5240 ****       258.0000 346.5000 -87.0000 Du        
   5241 ****       258.0000 346.7500 -87.7500 Du        
   5242 ****       258.0000 346.7500 -87.5000 Du        
   5243 ****       258.0000 346.7500 -87.2500 Du        
   5244 ****       258.0000 346.7500 -87.0000 Du        
   5245 ****       258.0000 346.7500 -86.7500 Du        
   5246 ****       258.0000 347.0000 -87.7500 Du        
   5247 ****       258.0000 347.0000 -87.5000 Du        
   5248 ****       258.0000 347.0000 -87.2500 Du        
   5249 ****       258.0000 347.0000 -87.0000 Du        
   5250 ****       258.0000 347.0000 -86.7500 Du        
   5251 ****       258.0000 347.2500 -87.7500 Du        
   5252 ****       258.0000 347.2500 -87.5000 Du        
   5253 ****       258.0000 347.2500 -87.2500 Du        
   5254 ****       258.0000 347.2500 -87.0000 Du        
   5255 ****       258.0000 347.2500 -86.7500 Du        
   5256 ****       258.0000 347.2500 -86.5000 Du        
   5257 ****       258.0000 347.5000 -87.5000 Du        
   5258 ****       258.0000 347.5000 -87.2500 Du        
   5259 ****       258.0000 347.5000 -87.0000 Du        
   5260 ****       258.0000 347.5000 -86.7500 Du        
   5261 ****       258.0000 347.5000 -86.5000 Du        
   5262 ****       258.0000 347.7500 -87.5000 Du        
   5263 ****       258.0000 347.7500 -87.2500 Du        
   5264 ****       258.0000 347.7500 -87.0000 Du        
   5265 ****       258.0000 347.7500 -86.7500 Du        
   5266 ****       258.0000 347.7500 -86.5000 Du        
   5267 ****       258.0000 348.0000 -87.5000 Du        
   5268 ****       258.0000 348.0000 -87.2500 Du        
   5269 ****       258.0000 348.0000 -87.0000 Du        
   5270 ****       258.0000 348.0000 -86.7500 Du        
   5271 ****       258.0000 348.2500 -87.5000 Du        
   5272 ****       258.0000 348.2500 -87.2500 Du        
   5273 ****       258.0000 348.2500 -87.0000 Du        
   5274 ****       258.0000 348.2500 -86.7500 Du        
   5275 ****       258.0000 348.5000 -87.2500 Du        
   5276 ****       258.0000 348.5000 -87.0000 Du        
   5277 ****       258.0000 348.7500 -87.2500 Du        
   5278 ****       258.0000 348.7500 -87.0000 Du        
   5279 ****       258.0000 348.7500 -86.7500 Du        
   5280 ****       258.0000 348.7500 -86.5000 Du        
   5281 ****       258.0000 349.0000 -87.0000 Du        
   5282 ****       258.0000 349.0000 -86.7500 Du        
   5283 ****       258.0000 349.0000 -86.5000 Du        
   5284 ****       258.0000 349.2500 -86.5000 Du        
   5285 ****       258.0000 350.0000 -84.2500 Du        
   5286 ****       258.2500 346.0000 -87.5000 Du        
   5287 ****       258.2500 346.0000 -87.2500 Du        
   5288 ****       258.2500 346.0000 -87.0000 Du        
   5289 ****       258.2500 346.2500 -87.5000 Du        
   5290 ****       258.2500 346.2500 -87.2500 Du        
   5291 ****       258.2500 346.2500 -87.0000 Du        
   5292 ****       258.2500 346.2500 -86.7500 Du        
   5293 ****       258.2500 346.5000 -87.5000 Du        
   5294 ****       258.2500 346.5000 -87.2500 Du        
   5295 ****       258.2500 346.5000 -87.0000 Du        
   5296 ****       258.2500 346.5000 -86.7500 Du        
   5297 ****       258.2500 346.7500 -87.5000 Du        
   5298 ****       258.2500 346.7500 -87.2500 Du        
   5299 ****       258.2500 346.7500 -87.0000 Du        
   5300 ****       258.2500 346.7500 -86.7500 Du        
   5301 ****       258.2500 347.0000 -87.7500 Du        
   5302 ****       258.2500 347.0000 -87.5000 Du        
   5303 ****       258.2500 347.0000 -87.2500 Du        
   5304 ****       258.2500 347.0000 -87.0000 Du        
   5305 ****       258.2500 347.0000 -86.7500 Du        
   5306 ****       258.2500 347.2500 -87.7500 Du        
   5307 ****       258.2500 347.2500 -87.5000 Du        
   5308 ****       258.2500 347.2500 -87.2500 Du        
   5309 ****       258.2500 347.2500 -87.0000 Du        
   5310 ****       258.2500 347.2500 -86.7500 Du        
   5311 ****       258.2500 347.5000 -87.5000 Du        
   5312 ****       258.2500 347.5000 -87.2500 Du        
   5313 ****       258.2500 347.5000 -87.0000 Du        
   5314 ****       258.2500 347.7500 -87.5000 Du        
   5315 ****       258.2500 347.7500 -87.2500 Du        
   5316 ****       258.2500 347.7500 -87.0000 Du        
   5317 ****       258.2500 348.0000 -87.5000 Du        
   5318 ****       258.2500 348.0000 -87.2500 Du        
   5319 ****       258.2500 348.0000 -87.0000 Du        
   5320 ****       258.2500 348.2500 -87.5000 Du        
   5321 ****       258.2500 348.2500 -87.2500 Du        
   5322 ****       258.2500 348.2500 -87.0000 Du        
   5323 ****       258.2500 348.5000 -87.2500 Du        
   5324 ****       258.2500 348.7500 -87.2500 Du        
   5325 ****       258.2500 348.7500 -87.0000 Du        
   5326 ****       258.5000 346.0000 -87.5000 Du        
   5327 ****       258.5000 346.0000 -87.2500 Du        
   5328 ****       258.5000 346.0000 -87.0000 Du        
   5329 ****       258.5000 346.0000 -86.7500 Du        
   5330 ****       258.5000 346.2500 -87.5000 Du        
   5331 ****       258.5000 346.2500 -87.2500 Du        
   5332 ****       258.5000 346.2500 -87.0000 Du        
   5333 ****       258.5000 346.2500 -86.7500 Du        
   5334 ****       258.5000 346.5000 -87.5000 Du        
   5335 ****       258.5000 346.5000 -87.2500 Du        
   5336 ****       258.5000 346.5000 -87.0000 Du        
   5337 ****       258.5000 346.5000 -86.7500 Du        
   5338 ****       258.5000 346.7500 -87.5000 Du        
   5339 ****       258.5000 346.7500 -87.2500 Du        
   5340 ****       258.5000 346.7500 -87.0000 Du        
   5341 ****       258.5000 346.7500 -86.7500 Du        
   5342 ****       258.5000 347.0000 -87.5000 Du        
   5343 ****       258.5000 347.0000 -87.2500 Du        
   5344 ****       258.5000 347.0000 -87.0000 Du        
   5345 ****       258.5000 347.2500 -87.5000 Du        
   5346 ****       258.5000 347.2500 -87.2500 Du        
   5347 ****       258.5000 347.2500 -87.0000 Du        
   5348 ****       258.7500 346.0000 -87.0000 Du        
   5349 ****       258.7500 346.2500 -87.0000 Du        
   5350 ****       258.7500 346.5000 -87.0000 Du        
   5351 ****       258.7500 346.7500 -87.0000 Du        
   5352 ****       258.7500 347.0000 -87.5000 Du        
   5353 ****       258.7500 347.0000 -87.2500 Du        
   5354 ****       259.0000 346.0000 -87.0000 Du        
   5355 ****       259.0000 346.2500 -87.0000 Du        
