#       Name:                CT1002167954
#       Creating user name   hitesit
#       Creation time:       Sun Apr 16 02:25:31 2023


#       File generated by GOLD software.
#

@<TRIPOS>MOLECULE
CT1002167954|ligand_prepared|mol2|1|dock4
    29    30     1
SMALL
NO_CHARGES


@<TRIPOS>ATOM
      1 C1         251.9531 350.2594 -81.9045 C.3            1 RES1               0.0000
      2 C2         253.4550 350.2013 -82.2505 C.ar           1 RES1               0.0000
      3 C3         251.8204 351.2288 -80.7336 C.2            1 RES1               0.0000
      4 C4         251.2405 350.7149 -83.1731 C.2            1 RES1               0.0000
      5 C5         251.3556 348.8964 -81.4840 C.3            1 RES1               0.0000
      6 C6         254.3493 349.5378 -81.4157 C.ar           1 RES1               0.0000
      7 C7         253.9599 350.8031 -83.4001 C.ar           1 RES1               0.0000
      8 N8         251.2939 352.4605 -80.9896 N.am           1 RES1               0.0000
      9 O9         252.2083 350.9312 -79.6106 O.2            1 RES1               0.0000
     10 N10        250.6159 351.9345 -83.1560 N.am           1 RES1               0.0000
     11 O11        251.2283 350.0360 -84.1925 O.2            1 RES1               0.0000
     12 C12        249.8375 348.8928 -81.3980 C.3            1 RES1               0.0000
     13 C13        255.6989 349.4755 -81.7207 C.ar           1 RES1               0.0000
     14 C14        255.3099 350.7398 -83.7031 C.ar           1 RES1               0.0000
     15 C15        250.6364 352.8414 -82.1317 C.2            1 RES1               0.0000
     16 C16        256.1801 350.0760 -82.8646 C.ar           1 RES1               0.0000
     17 O17        250.0965 353.9411 -82.2115 O.2            1 RES1               0.0000
     18 H18        251.6701 348.1346 -82.2079 H              1 RES1               0.0000
     19 H19        251.7653 348.6182 -80.5052 H              1 RES1               0.0000
     20 H20        253.9895 349.0614 -80.5099 H              1 RES1               0.0000
     21 H21        253.2940 351.3316 -84.0738 H              1 RES1               0.0000
     22 H22        251.3988 353.1634 -80.2649 H              1 RES1               0.0000
     23 H23        250.0865 352.1898 -83.9836 H              1 RES1               0.0000
     24 H24        249.4704 347.9132 -81.0992 H              1 RES1               0.0000
     25 H25        249.4907 349.6216 -80.6684 H              1 RES1               0.0000
     26 H26        249.3961 349.1409 -82.3610 H              1 RES1               0.0000
     27 H27        256.3798 348.9531 -81.0569 H              1 RES1               0.0000
     28 H28        255.6843 351.2143 -84.6041 H              1 RES1               0.0000
     29 H29        257.2373 350.0267 -83.1035 H              1 RES1               0.0000
@<TRIPOS>BOND
    1    1    2 1     
    2    1    3 1     
    3    1    4 1     
    4    1    5 1     
    5    2    6 ar    
    6    2    7 ar    
    7    3    8 1     
    8    3    9 2     
    9    4   10 1     
   10    4   11 2     
   11    5   12 1     
   12    5   18 1     
   13    5   19 1     
   14    6   13 ar    
   15    6   20 1     
   16    7   14 ar    
   17    7   21 1     
   18    8   15 1     
   19    8   22 1     
   20   10   15 1     
   21   10   23 1     
   22   12   24 1     
   23   12   25 1     
   24   12   26 1     
   25   13   16 ar    
   26   13   27 1     
   27   14   16 ar    
   28   14   28 1     
   29   15   17 2     
   30   16   29 1     
@<TRIPOS>SUBSTRUCTURE
      1 RES1           1
@<TRIPOS>SET
DONOR_HYDROGENS      STATIC     ATOMS    <user>   **** ""
2 22 23
ATOM$RED        STATIC     ATOMS    COLORGROUP SYSTEM
2 22 23
@<TRIPOS>COMMENT
> <Gold.Version>
2022.3.0

> <Gold.Id.Protein>
unknown|7ts3_clean|pdb

> <Gold.Protein.RotatedTorsions>
[ 1435 1407 1406 1405 ] final -122.90 input   60.00 | X-H torsion
[ 3032 3011 3012 3013 ] final   66.84 input  108.73 | X-H torsion
[ 3038 3017 3015 3012 ] final  111.26 input   60.00 | X-H torsion
[ 6598 6536 6535 6533 ] final  130.57 input   59.96 | X-H torsion
[ 1564 1537 1535 1532 ] final -178.27 input   60.01 | X-H torsion
[ 3090 3071 3072 3073 ] final   97.27 input  109.54 | X-H torsion
[ 3176 3157 3158 3159 ] final   51.88 input  112.57 | X-H torsion
[ 3233 3207 3208 3209 ] final   78.64 input   86.36 | X-H torsion
[ 4250 4222 4221 4218 ] final  -58.26 input   60.02 | X-H torsion
[ 27316 3014 3013 3012 ] final   13.39 input    0.00 | X-H torsion
[ 27318 3160 3159 3158 ] final  -47.39 input    0.00 | X-H torsion

> <Gold.Protein.ActiveResidues>
 LEU321  LYS324  SER325  THR326  PRO350  ALA354  THR355  LYS356  ASP357  GLN358 
 GLU365  PHE366  GLN369  TYR370  SER372  SER373  TYR408  HIS412  ARG415  ASN416 
 TRP426  GLU670  CYS673  ARG674  GLY675  GLY676  PRO678  TYR703  ARG704  LEU705 
 THR706  PRO707 

> <Gold.Protein.RotatedAtoms>
  252.3987  347.8581  -88.5045 H   0  0  0  0  0  0  0  0  0  0  0  0  # atno 1435 bound_to 1407
  252.2094  348.9072  -87.2352 H   0  0  0  0  0  0  0  0  0  0  0  0  # atno 1436 bound_to 1407
  253.4408  349.1335  -88.3202 H   0  0  0  0  0  0  0  0  0  0  0  0  # atno 1437 bound_to 1407
  260.8925  348.7617  -81.9240 H   0  0  0  0  0  0  0  0  0  0  0  0  # atno 1564 bound_to 1537
  247.6772  347.8832  -86.8715 H   0  0  0  0  0  0  0  0  0  0  0  0  # atno 3032 bound_to 3011
  247.2990  348.5792  -83.4482 H   0  0  0  0  0  0  0  0  0  0  0  0  # atno 3038 bound_to 3017
  246.4371  345.4447  -83.2993 H   0  0  0  0  0  0  0  0  0  0  0  0  # atno 3090 bound_to 3071
  245.1138  347.5384  -83.1432 H   0  0  0  0  0  0  0  0  0  0  0  0  # atno 3176 bound_to 3157
  244.6450  348.4663  -84.7070 H   0  0  0  0  0  0  0  0  0  0  0  0  # atno 3233 bound_to 3207
  248.7702  358.4891  -82.2554 H   0  0  0  0  0  0  0  0  0  0  0  0  # atno 4250 bound_to 4222
  252.0216  355.4309  -81.3638 H   0  0  0  0  0  0  0  0  0  0  0  0  # atno 6598 bound_to 6536
  248.3312  346.3686  -87.4395 LP  0  0  0  0  0  0  0  0  0  0  0  0  # atno 27275 bound_to 3011
  247.2474  348.5874  -85.0751 LP  0  0  0  0  0  0  0  0  0  0  0  0  # atno 27276 bound_to 3017
  248.5862  349.1034  -84.2953 LP  0  0  0  0  0  0  0  0  0  0  0  0  # atno 27277 bound_to 3017
  250.7683  355.0162  -80.4125 LP  0  0  0  0  0  0  0  0  0  0  0  0  # atno 27290 bound_to 6536
  252.2938  354.6381  -79.9691 LP  0  0  0  0  0  0  0  0  0  0  0  0  # atno 27291 bound_to 6536
  261.3047  347.2934  -81.3563 LP  0  0  0  0  0  0  0  0  0  0  0  0  # atno 27298 bound_to 1537
  259.9287  347.4832  -82.2150 LP  0  0  0  0  0  0  0  0  0  0  0  0  # atno 27299 bound_to 1537
  246.0866  345.8878  -84.9486 LP  0  0  0  0  0  0  0  0  0  0  0  0  # atno 27306 bound_to 3071
  243.7539  346.6994  -82.4452 LP  0  0  0  0  0  0  0  0  0  0  0  0  # atno 27307 bound_to 3157
  243.7231  349.7179  -83.9011 LP  0  0  0  0  0  0  0  0  0  0  0  0  # atno 27308 bound_to 3207
  249.2184  358.1436  -80.7298 LP  0  0  0  0  0  0  0  0  0  0  0  0  # atno 27309 bound_to 4222
  247.6390  358.3405  -81.0952 LP  0  0  0  0  0  0  0  0  0  0  0  0  # atno 27310 bound_to 4222
  245.6480  347.0255  -86.8510 LP  0  0  0  0  0  0  0  0  0  0  0  0  # atno 27316 bound_to 3014
  244.3924  346.8284  -85.6743 LP  0  0  0  0  0  0  0  0  0  0  0  0  # atno 27317 bound_to 3014
  241.8774  350.7357  -83.2113 LP  0  0  0  0  0  0  0  0  0  0  0  0  # atno 27318 bound_to 3160
  243.1890  351.6224  -83.9138 LP  0  0  0  0  0  0  0  0  0  0  0  0  # atno 27319 bound_to 3160

> <Gold.Score>
     Fitness  S(hb_ext) S(vdw_ext)  S(hb_int)    S(int)      intcor
     41.33       1.62      29.99       0.00      -1.53      -0.76

> <Gold.Goldscore.Fitness>
41.3324

> <Gold.Goldscore.Internal.Vdw>
-1.7416

> <Gold.Goldscore.Internal.Torsion>
-0.5496

> <Gold.Goldscore.External.Vdw>
29.9908

> <Gold.Goldscore.Internal.HBond>
0.0000

> <Gold.Goldscore.External.HBond>
1.6243

> <Gold.Goldscore.Internal.Correction>
-0.7620

> <Gold.Goldscore.Hbonds>
donor molecule, donor type, donor heavy atom, donor atom, acceptor molecule, acceptor atom, score
      P1  H 23649 23708       L1     9  0.27

> <Gold.Goldscore.Internal.Vdw.Weighted>
-1.7416

> <Gold.Goldscore.Internal.Torsion.Weighted>
-0.5496

> <Gold.Goldscore.External.Vdw.Weighted>
41.2373

> <Gold.Goldscore.Internal.HBond.Weighted>
0.0000

> <Gold.Goldscore.External.HBond.Weighted>
1.6243

> <Gold.Goldscore.Internal.Correction.Weighted>
-0.7620

> <Gold.Rescore>
     Score     S(PLP)   S(hbond)     S(cho)   S(metal)  DE(clash)   DE(tors)     intcor
     42.52     -39.99       1.43       0.00       0.00       1.30       0.23       ----

> <Gold.PLP.Fitness>
42.5196

> <Gold.PLP.PLP>
-39.9900

> <Gold.PLP.part.hbond>
-4.3908

> <Gold.PLP.part.metal>
0.0000

> <Gold.PLP.part.buried>
-3.9719

> <Gold.PLP.part.nonpolar>
-32.8213

> <Gold.PLP.part.repulsive>
0.9446

> <Gold.PLP.ligand.clash>
1.3005

> <Gold.PLP.ligand.torsion>
0.2269

> <Gold.PLP.Chemscore.Hbond>
1.4280

> <Gold.PLP.Chemscore.CHOScore>
0.0000

> <Gold.PLP.Chemscore.Metal>
0.0000

> <Gold.Chemscore.Hbonds>
donor molecule, donor type, donor heavy atom, donor atom, acceptor molecule, acceptor atom, score
      L1  H     8    22       P1  6536  0.47
      P1  H 23649 23708       L1     9  0.77

> <Gold.PLP.Chemscore.Internal.Correction>
   9.000000E+99

