#       Name:                CT1002167954
#       Creating user name   hitesit
#       Creation time:       Sun Apr 16 02:25:29 2023


#       File generated by GOLD software.
#

@<TRIPOS>MOLECULE
CT1002167954|ligand_prepared|mol2|1|dock2
    29    30     1
SMALL
NO_CHARGES


@<TRIPOS>ATOM
      1 C1         246.3262 354.0692 -79.0342 C.3            1 RES1               0.0000
      2 C2         247.0925 353.6056 -80.2898 C.ar           1 RES1               0.0000
      3 C3         245.1538 354.9086 -79.5334 C.2            1 RES1               0.0000
      4 C4         245.9133 352.8017 -78.2942 C.2            1 RES1               0.0000
      5 C5         247.1721 354.9319 -78.0689 C.3            1 RES1               0.0000
      6 C6         246.4081 353.1032 -81.3925 C.ar           1 RES1               0.0000
      7 C7         248.4812 353.6766 -80.3612 C.ar           1 RES1               0.0000
      8 N8         243.9090 354.3547 -79.4724 N.am           1 RES1               0.0000
      9 O9         245.3236 356.0240 -80.0099 O.2            1 RES1               0.0000
     10 N10        244.5755 352.5208 -78.1987 N.am           1 RES1               0.0000
     11 O11        246.7352 352.0351 -77.8072 O.2            1 RES1               0.0000
     12 C12        246.3669 355.5598 -76.9421 C.3            1 RES1               0.0000
     13 C13        247.0870 352.6895 -82.5266 C.ar           1 RES1               0.0000
     14 C14        249.1582 353.2621 -81.4962 C.ar           1 RES1               0.0000
     15 C15        243.5561 353.2238 -78.7808 C.2            1 RES1               0.0000
     16 C16        248.4623 352.7691 -82.5794 C.ar           1 RES1               0.0000
     17 O17        242.3814 352.8777 -78.6953 O.2            1 RES1               0.0000
     18 H18        247.9598 354.3050 -77.6332 H              1 RES1               0.0000
     19 H19        247.6582 355.7304 -78.6429 H              1 RES1               0.0000
     20 H20        245.3259 353.0308 -81.3683 H              1 RES1               0.0000
     21 H21        249.0495 354.0601 -79.5206 H              1 RES1               0.0000
     22 H22        243.1724 354.8248 -79.9888 H              1 RES1               0.0000
     23 H23        244.3155 351.7128 -77.6421 H              1 RES1               0.0000
     24 H24        247.0081 356.1541 -76.2946 H              1 RES1               0.0000
     25 H25        245.5900 356.2100 -77.3390 H              1 RES1               0.0000
     26 H26        245.8898 354.7930 -76.3353 H              1 RES1               0.0000
     27 H27        246.5348 352.3010 -83.3759 H              1 RES1               0.0000
     28 H28        250.2407 353.3259 -81.5332 H              1 RES1               0.0000
     29 H29        248.9939 352.4453 -83.4681 H              1 RES1               0.0000
@<TRIPOS>BOND
    1    1    2 1     
    2    1    3 1     
    3    1    4 1     
    4    1    5 1     
    5    2    6 ar    
    6    2    7 ar    
    7    3    8 1     
    8    3    9 2     
    9    4   10 1     
   10    4   11 2     
   11    5   12 1     
   12    5   18 1     
   13    5   19 1     
   14    6   13 ar    
   15    6   20 1     
   16    7   14 ar    
   17    7   21 1     
   18    8   15 1     
   19    8   22 1     
   20   10   15 1     
   21   10   23 1     
   22   12   24 1     
   23   12   25 1     
   24   12   26 1     
   25   13   16 ar    
   26   13   27 1     
   27   14   16 ar    
   28   14   28 1     
   29   15   17 2     
   30   16   29 1     
@<TRIPOS>SUBSTRUCTURE
      1 RES1           1
@<TRIPOS>SET
DONOR_HYDROGENS      STATIC     ATOMS    <user>   **** ""
2 22 23
ATOM$RED        STATIC     ATOMS    COLORGROUP SYSTEM
2 22 23
@<TRIPOS>COMMENT
> <Gold.Version>
2022.3.0

> <Gold.Id.Protein>
unknown|7ts3_clean|pdb

> <Gold.Protein.RotatedTorsions>
[ 1435 1407 1406 1405 ] final -105.94 input   60.00 | X-H torsion
[ 3032 3011 3012 3013 ] final -133.97 input  108.73 | X-H torsion
[ 3038 3017 3015 3012 ] final   32.32 input   60.00 | X-H torsion
[ 6598 6536 6535 6533 ] final   -8.88 input   59.96 | X-H torsion
[ 1564 1537 1535 1532 ] final    3.96 input   60.01 | X-H torsion
[ 3090 3071 3072 3073 ] final   35.88 input  109.54 | X-H torsion
[ 3176 3157 3158 3159 ] final   97.12 input  112.57 | X-H torsion
[ 3233 3207 3208 3209 ] final -167.53 input   86.36 | X-H torsion
[ 4250 4222 4221 4218 ] final  -82.19 input   60.02 | X-H torsion
[ 27316 3014 3013 3012 ] final   45.53 input    0.00 | X-H torsion
[ 27318 3160 3159 3158 ] final  -58.98 input    0.00 | X-H torsion

> <Gold.Protein.ActiveResidues>
 LEU321  LYS324  SER325  THR326  PRO350  ALA354  THR355  LYS356  ASP357  GLN358 
 GLU365  PHE366  GLN369  TYR370  SER372  SER373  TYR408  HIS412  ARG415  ASN416 
 TRP426  GLU670  CYS673  ARG674  GLY675  GLY676  PRO678  TYR703  ARG704  LEU705 
 THR706  PRO707 

> <Gold.Protein.RotatedAtoms>
  252.2035  347.8537  -88.3006 H   0  0  0  0  0  0  0  0  0  0  0  0  # atno 1435 bound_to 1407
  252.4055  349.1101  -87.2384 H   0  0  0  0  0  0  0  0  0  0  0  0  # atno 1436 bound_to 1407
  253.4397  348.9352  -88.5208 H   0  0  0  0  0  0  0  0  0  0  0  0  # atno 1437 bound_to 1407
  260.5582  346.9306  -81.7237 H   0  0  0  0  0  0  0  0  0  0  0  0  # atno 1564 bound_to 1537
  248.6002  346.4980  -87.3372 H   0  0  0  0  0  0  0  0  0  0  0  0  # atno 3032 bound_to 3011
  246.8780  348.4305  -84.5523 H   0  0  0  0  0  0  0  0  0  0  0  0  # atno 3038 bound_to 3017
  246.2718  346.2957  -83.5179 H   0  0  0  0  0  0  0  0  0  0  0  0  # atno 3090 bound_to 3071
  245.1882  347.4289  -82.4822 H   0  0  0  0  0  0  0  0  0  0  0  0  # atno 3176 bound_to 3157
  244.6747  349.7693  -83.9798 H   0  0  0  0  0  0  0  0  0  0  0  0  # atno 3233 bound_to 3207
  249.1179  358.4291  -82.0937 H   0  0  0  0  0  0  0  0  0  0  0  0  # atno 4250 bound_to 4222
  250.8792  354.8675  -80.1550 H   0  0  0  0  0  0  0  0  0  0  0  0  # atno 6598 bound_to 6536
  247.4214  347.7340  -86.9804 LP  0  0  0  0  0  0  0  0  0  0  0  0  # atno 27275 bound_to 3011
  248.3524  349.0208  -84.9084 LP  0  0  0  0  0  0  0  0  0  0  0  0  # atno 27276 bound_to 3017
  247.9048  348.8196  -83.3509 LP  0  0  0  0  0  0  0  0  0  0  0  0  # atno 27277 bound_to 3017
  252.5010  354.7403  -80.1883 LP  0  0  0  0  0  0  0  0  0  0  0  0  # atno 27290 bound_to 6536
  251.7119  355.4816  -81.4108 LP  0  0  0  0  0  0  0  0  0  0  0  0  # atno 27291 bound_to 6536
  260.0914  348.3740  -82.3125 LP  0  0  0  0  0  0  0  0  0  0  0  0  # atno 27298 bound_to 1537
  261.4787  348.2465  -81.4606 LP  0  0  0  0  0  0  0  0  0  0  0  0  # atno 27299 bound_to 1537
  246.2503  345.0447  -84.7320 LP  0  0  0  0  0  0  0  0  0  0  0  0  # atno 27306 bound_to 3071
  243.6802  346.8077  -83.0993 LP  0  0  0  0  0  0  0  0  0  0  0  0  # atno 27307 bound_to 3157
  243.6944  348.4594  -84.6035 LP  0  0  0  0  0  0  0  0  0  0  0  0  # atno 27308 bound_to 3207
  248.8950  358.1236  -80.5111 LP  0  0  0  0  0  0  0  0  0  0  0  0  # atno 27309 bound_to 4222
  247.6122  358.4210  -81.4768 LP  0  0  0  0  0  0  0  0  0  0  0  0  # atno 27310 bound_to 4222
  245.4574  346.5932  -86.9316 LP  0  0  0  0  0  0  0  0  0  0  0  0  # atno 27316 bound_to 3014
  244.5830  347.2608  -85.5938 LP  0  0  0  0  0  0  0  0  0  0  0  0  # atno 27317 bound_to 3014
  241.8278  350.7121  -83.3773 LP  0  0  0  0  0  0  0  0  0  0  0  0  # atno 27318 bound_to 3160
  243.2385  351.6461  -83.7478 LP  0  0  0  0  0  0  0  0  0  0  0  0  # atno 27319 bound_to 3160

> <Gold.Score>
     Fitness  S(hb_ext) S(vdw_ext)  S(hb_int)    S(int)      intcor
     31.38       4.28      19.77       0.00      -0.08      -0.78

> <Gold.Goldscore.Fitness>
31.3817

> <Gold.Goldscore.Internal.Vdw>
-0.3697

> <Gold.Goldscore.Internal.Torsion>
-0.4887

> <Gold.Goldscore.External.Vdw>
19.7670

> <Gold.Goldscore.Internal.HBond>
0.0000

> <Gold.Goldscore.External.HBond>
4.2786

> <Gold.Goldscore.Internal.Correction>
-0.7819

> <Gold.Goldscore.Hbonds>
donor molecule, donor type, donor heavy atom, donor atom, acceptor molecule, acceptor atom, score
      P1  H  6979  7037       L1    11  0.71

> <Gold.Goldscore.Internal.Vdw.Weighted>
-0.3697

> <Gold.Goldscore.Internal.Torsion.Weighted>
-0.4887

> <Gold.Goldscore.External.Vdw.Weighted>
27.1796

> <Gold.Goldscore.Internal.HBond.Weighted>
0.0000

> <Gold.Goldscore.External.HBond.Weighted>
4.2786

> <Gold.Goldscore.Internal.Correction.Weighted>
-0.7819

> <Gold.Rescore>
     Score     S(PLP)   S(hbond)     S(cho)   S(metal)  DE(clash)   DE(tors)     intcor
     24.82     -22.32       1.62       0.00       0.00       0.00       1.18       ----

> <Gold.PLP.Fitness>
24.8237

> <Gold.PLP.PLP>
-22.3216

> <Gold.PLP.part.hbond>
-2.0000

> <Gold.PLP.part.metal>
0.0000

> <Gold.PLP.part.buried>
-1.2433

> <Gold.PLP.part.nonpolar>
-21.0659

> <Gold.PLP.part.repulsive>
1.8325

> <Gold.PLP.ligand.clash>
0.0000

> <Gold.PLP.ligand.torsion>
1.1838

> <Gold.PLP.Chemscore.Hbond>
1.6232

> <Gold.PLP.Chemscore.CHOScore>
0.0000

> <Gold.PLP.Chemscore.Metal>
0.0000

> <Gold.Chemscore.Hbonds>
donor molecule, donor type, donor heavy atom, donor atom, acceptor molecule, acceptor atom, score
      P1  H  6979  7037       L1    11  0.80
      P1  H  6978  7035       L1    11  0.03

> <Gold.PLP.Chemscore.Internal.Correction>
   9.000000E+99

