#       Name:                CT1002167954
#       Creating user name   hitesit
#       Creation time:       Sun Apr 16 02:25:30 2023


#       File generated by GOLD software.
#

@<TRIPOS>MOLECULE
CT1002167954|ligand_prepared|mol2|1|dock3
    29    30     1
SMALL
NO_CHARGES


@<TRIPOS>ATOM
      1 C1         250.5935 351.2233 -81.5797 C.3            1 RES1               0.0000
      2 C2         251.8222 350.8972 -82.4530 C.ar           1 RES1               0.0000
      3 C3         250.4019 352.7351 -81.6570 C.2            1 RES1               0.0000
      4 C4         249.4341 350.4189 -82.1572 C.2            1 RES1               0.0000
      5 C5         250.7588 350.8244 -80.0948 C.3            1 RES1               0.0000
      6 C6         251.7392 350.9508 -83.8412 C.ar           1 RES1               0.0000
      7 C7         253.0439 350.5445 -81.8860 C.ar           1 RES1               0.0000
      8 N8         249.3633 353.2028 -82.4070 N.am           1 RES1               0.0000
      9 O9         251.1740 353.5063 -81.1008 O.2            1 RES1               0.0000
     10 N10        248.3915 351.1081 -82.7193 N.am           1 RES1               0.0000
     11 O11        249.4217 349.1942 -82.1455 O.2            1 RES1               0.0000
     12 C12        249.4827 350.9569 -79.2786 C.3            1 RES1               0.0000
     13 C13        252.8385 350.6650 -84.6338 C.ar           1 RES1               0.0000
     14 C14        254.1420 350.2589 -82.6804 C.ar           1 RES1               0.0000
     15 C15        248.3179 352.4627 -82.8979 C.2            1 RES1               0.0000
     16 C16        254.0406 350.3193 -84.0540 C.ar           1 RES1               0.0000
     17 O17        247.3715 353.0046 -83.4617 O.2            1 RES1               0.0000
     18 H18        251.1035 349.7842 -80.0448 H              1 RES1               0.0000
     19 H19        251.5336 351.4564 -79.6435 H              1 RES1               0.0000
     20 H20        250.8009 351.2185 -84.3154 H              1 RES1               0.0000
     21 H21        253.1466 350.4894 -80.8075 H              1 RES1               0.0000
     22 H22        249.3640 354.1947 -82.6228 H              1 RES1               0.0000
     23 H23        247.5967 350.5606 -83.0336 H              1 RES1               0.0000
     24 H24        249.6540 350.6647 -78.2447 H              1 RES1               0.0000
     25 H25        249.1253 351.9845 -79.2856 H              1 RES1               0.0000
     26 H26        248.6976 350.3222 -79.6845 H              1 RES1               0.0000
     27 H27        252.7532 350.7127 -85.7144 H              1 RES1               0.0000
     28 H28        255.0859 349.9866 -82.2199 H              1 RES1               0.0000
     29 H29        254.9018 350.0959 -84.6751 H              1 RES1               0.0000
@<TRIPOS>BOND
    1    1    2 1     
    2    1    3 1     
    3    1    4 1     
    4    1    5 1     
    5    2    6 ar    
    6    2    7 ar    
    7    3    8 1     
    8    3    9 2     
    9    4   10 1     
   10    4   11 2     
   11    5   12 1     
   12    5   18 1     
   13    5   19 1     
   14    6   13 ar    
   15    6   20 1     
   16    7   14 ar    
   17    7   21 1     
   18    8   15 1     
   19    8   22 1     
   20   10   15 1     
   21   10   23 1     
   22   12   24 1     
   23   12   25 1     
   24   12   26 1     
   25   13   16 ar    
   26   13   27 1     
   27   14   16 ar    
   28   14   28 1     
   29   15   17 2     
   30   16   29 1     
@<TRIPOS>SUBSTRUCTURE
      1 RES1           1
@<TRIPOS>SET
DONOR_HYDROGENS      STATIC     ATOMS    <user>   **** ""
2 22 23
ATOM$RED        STATIC     ATOMS    COLORGROUP SYSTEM
2 22 23
@<TRIPOS>COMMENT
> <Gold.Version>
2022.3.0

> <Gold.Id.Protein>
unknown|7ts3_clean|pdb

> <Gold.Protein.RotatedTorsions>
[ 1435 1407 1406 1405 ] final -123.80 input   60.00 | X-H torsion
[ 3032 3011 3012 3013 ] final   53.25 input  108.73 | X-H torsion
[ 3038 3017 3015 3012 ] final -173.24 input   60.00 | X-H torsion
[ 6598 6536 6535 6533 ] final   75.46 input   59.96 | X-H torsion
[ 1564 1537 1535 1532 ] final  111.70 input   60.01 | X-H torsion
[ 3090 3071 3072 3073 ] final   96.50 input  109.54 | X-H torsion
[ 3176 3157 3158 3159 ] final  142.39 input  112.57 | X-H torsion
[ 3233 3207 3208 3209 ] final  -37.89 input   86.36 | X-H torsion
[ 4250 4222 4221 4218 ] final -104.36 input   60.02 | X-H torsion
[ 27316 3014 3013 3012 ] final  -32.86 input    0.00 | X-H torsion
[ 27318 3160 3159 3158 ] final   10.82 input    0.00 | X-H torsion

> <Gold.Protein.ActiveResidues>
 LEU321  LYS324  SER325  THR326  PRO350  ALA354  THR355  LYS356  ASP357  GLN358 
 GLU365  PHE366  GLN369  TYR370  SER372  SER373  TYR408  HIS412  ARG415  ASN416 
 TRP426  GLU670  CYS673  ARG674  GLY675  GLY676  PRO678  TYR703  ARG704  LEU705 
 THR706  PRO707 

> <Gold.Protein.RotatedAtoms>
  252.4099  347.8603  -88.5143 H   0  0  0  0  0  0  0  0  0  0  0  0  # atno 1435 bound_to 1407
  252.2000  348.8957  -87.2369 H   0  0  0  0  0  0  0  0  0  0  0  0  # atno 1436 bound_to 1407
  253.4389  349.1429  -88.3087 H   0  0  0  0  0  0  0  0  0  0  0  0  # atno 1437 bound_to 1407
  261.5137  348.0578  -81.4017 H   0  0  0  0  0  0  0  0  0  0  0  0  # atno 1564 bound_to 1537
  247.4983  347.8041  -86.9421 H   0  0  0  0  0  0  0  0  0  0  0  0  # atno 3032 bound_to 3011
  248.3511  348.9973  -83.6321 H   0  0  0  0  0  0  0  0  0  0  0  0  # atno 3038 bound_to 3017
  246.4359  345.4559  -83.2961 H   0  0  0  0  0  0  0  0  0  0  0  0  # atno 3090 bound_to 3071
  244.8156  347.1309  -82.0053 H   0  0  0  0  0  0  0  0  0  0  0  0  # atno 3176 bound_to 3157
  243.2909  349.0032  -84.2908 H   0  0  0  0  0  0  0  0  0  0  0  0  # atno 3233 bound_to 3207
  249.3529  358.3569  -81.8307 H   0  0  0  0  0  0  0  0  0  0  0  0  # atno 4250 bound_to 4222
  251.1648  355.4374  -81.2381 H   0  0  0  0  0  0  0  0  0  0  0  0  # atno 6598 bound_to 6536
  248.5075  346.4466  -87.3699 LP  0  0  0  0  0  0  0  0  0  0  0  0  # atno 27275 bound_to 3011
  246.8724  348.4224  -83.9958 LP  0  0  0  0  0  0  0  0  0  0  0  0  # atno 27276 bound_to 3017
  247.9023  348.8476  -85.1895 LP  0  0  0  0  0  0  0  0  0  0  0  0  # atno 27277 bound_to 3017
  251.2930  354.6457  -79.8223 LP  0  0  0  0  0  0  0  0  0  0  0  0  # atno 27290 bound_to 6536
  252.6323  355.0022  -80.6859 LP  0  0  0  0  0  0  0  0  0  0  0  0  # atno 27291 bound_to 6536
  260.3893  346.9613  -81.8278 LP  0  0  0  0  0  0  0  0  0  0  0  0  # atno 27298 bound_to 1537
  260.2186  348.5241  -82.2696 LP  0  0  0  0  0  0  0  0  0  0  0  0  # atno 27299 bound_to 1537
  246.0878  345.8767  -84.9517 LP  0  0  0  0  0  0  0  0  0  0  0  0  # atno 27306 bound_to 3071
  244.0489  347.1025  -83.5712 LP  0  0  0  0  0  0  0  0  0  0  0  0  # atno 27307 bound_to 3157
  245.0308  349.1993  -84.3031 LP  0  0  0  0  0  0  0  0  0  0  0  0  # atno 27308 bound_to 3207
  248.5400  358.1361  -80.4385 LP  0  0  0  0  0  0  0  0  0  0  0  0  # atno 27309 bound_to 4222
  247.7305  358.4812  -81.8142 LP  0  0  0  0  0  0  0  0  0  0  0  0  # atno 27310 bound_to 4222
  245.5826  347.5618  -86.4377 LP  0  0  0  0  0  0  0  0  0  0  0  0  # atno 27316 bound_to 3014
  244.4578  346.2921  -86.0876 LP  0  0  0  0  0  0  0  0  0  0  0  0  # atno 27317 bound_to 3014
  242.4541  351.0839  -82.7054 LP  0  0  0  0  0  0  0  0  0  0  0  0  # atno 27318 bound_to 3160
  242.6122  351.2742  -84.4197 LP  0  0  0  0  0  0  0  0  0  0  0  0  # atno 27319 bound_to 3160

> <Gold.Score>
     Fitness  S(hb_ext) S(vdw_ext)  S(hb_int)    S(int)      intcor
     35.40       3.37      23.32       0.00      -0.03      -0.76

> <Gold.Goldscore.Fitness>
35.3984

> <Gold.Goldscore.Internal.Vdw>
-0.3174

> <Gold.Goldscore.Internal.Torsion>
-0.4775

> <Gold.Goldscore.External.Vdw>
23.3203

> <Gold.Goldscore.Internal.HBond>
0.0000

> <Gold.Goldscore.External.HBond>
3.3659

> <Gold.Goldscore.Internal.Correction>
-0.7620

> <Gold.Goldscore.Hbonds>
donor molecule, donor type, donor heavy atom, donor atom, acceptor molecule, acceptor atom, score
      P1  H  3017  3038       L1    11  0.54
      P1  H  3214  3240       L1    17  0.15
      P1  H  3944  3978       L1     9  0.05
      L1  H     8    22       P1  3940  0.02
      L1  H    10    23       P1  3164  0.31

> <Gold.Goldscore.Internal.Vdw.Weighted>
-0.3174

> <Gold.Goldscore.Internal.Torsion.Weighted>
-0.4775

> <Gold.Goldscore.External.Vdw.Weighted>
32.0654

> <Gold.Goldscore.Internal.HBond.Weighted>
0.0000

> <Gold.Goldscore.External.HBond.Weighted>
3.3659

> <Gold.Goldscore.Internal.Correction.Weighted>
-0.7620

> <Gold.Rescore>
     Score     S(PLP)   S(hbond)     S(cho)   S(metal)  DE(clash)   DE(tors)     intcor
     32.64     -24.21       2.84       0.00       0.00       0.00       0.04       ----

> <Gold.PLP.Fitness>
32.6375

> <Gold.PLP.PLP>
-24.2118

> <Gold.PLP.part.hbond>
-3.3142

> <Gold.PLP.part.metal>
0.0000

> <Gold.PLP.part.buried>
5.2110

> <Gold.PLP.part.nonpolar>
-27.9524

> <Gold.PLP.part.repulsive>
0.9598

> <Gold.PLP.ligand.clash>
0.0000

> <Gold.PLP.ligand.torsion>
0.0411

> <Gold.PLP.Chemscore.Hbond>
2.8360

> <Gold.PLP.Chemscore.CHOScore>
0.0000

> <Gold.PLP.Chemscore.Metal>
0.0000

> <Gold.Chemscore.Hbonds>
donor molecule, donor type, donor heavy atom, donor atom, acceptor molecule, acceptor atom, score
      L1  H    10    23       P1  3164  0.94
      P1  H  3017  3038       L1    11  0.80
      P1  H  3944  3978       L1     9  0.70

> <Gold.PLP.Chemscore.Internal.Correction>
   9.000000E+99

