#       Name:                CT1002167954
#       Creating user name   hitesit
#       Creation time:       Sun Apr 16 02:25:29 2023


#       File generated by GOLD software.
#

@<TRIPOS>MOLECULE
CT1002167954|ligand_prepared|mol2|1|dock1
    29    30     1
SMALL
NO_CHARGES


@<TRIPOS>ATOM
      1 C1         252.0272 350.2631 -81.9704 C.3            1 RES1               0.0000
      2 C2         253.5289 350.1746 -82.3111 C.ar           1 RES1               0.0000
      3 C3         251.9108 351.2293 -80.7951 C.2            1 RES1               0.0000
      4 C4         251.3294 350.7401 -83.2394 C.2            1 RES1               0.0000
      5 C5         251.3991 348.9112 -81.5591 C.3            1 RES1               0.0000
      6 C6         254.4008 349.4645 -81.4911 C.ar           1 RES1               0.0000
      7 C7         254.0555 350.7943 -83.4412 C.ar           1 RES1               0.0000
      8 N8         251.4118 352.4733 -81.0469 N.am           1 RES1               0.0000
      9 O9         252.2879 350.9178 -79.6722 O.2            1 RES1               0.0000
     10 N10        250.7310 351.9727 -83.2185 N.am           1 RES1               0.0000
     11 O11        251.3066 350.0667 -84.2623 O.2            1 RES1               0.0000
     12 C12        249.8835 348.9498 -81.4414 C.3            1 RES1               0.0000
     13 C13        255.7499 349.3747 -81.7916 C.ar           1 RES1               0.0000
     14 C14        255.4050 350.7034 -83.7397 C.ar           1 RES1               0.0000
     15 C15        250.7670 352.8739 -82.1895 C.2            1 RES1               0.0000
     16 C16        256.2528 349.9936 -82.9161 C.ar           1 RES1               0.0000
     17 O17        250.2511 353.9852 -82.2658 O.2            1 RES1               0.0000
     18 H18        251.6764 348.1526 -82.3013 H              1 RES1               0.0000
     19 H19        251.8204 348.6053 -80.5935 H              1 RES1               0.0000
     20 H20        254.0236 348.9729 -80.6005 H              1 RES1               0.0000
     21 H21        253.4075 351.3589 -84.1029 H              1 RES1               0.0000
     22 H22        251.5289 353.1702 -80.3183 H              1 RES1               0.0000
     23 H23        250.2104 352.2435 -84.0467 H              1 RES1               0.0000
     24 H24        249.4943 347.9764 -81.1505 H              1 RES1               0.0000
     25 H25        249.5731 349.6763 -80.6933 H              1 RES1               0.0000
     26 H26        249.4299 349.2263 -82.3910 H              1 RES1               0.0000
     27 H27        256.4131 348.8160 -81.1395 H              1 RES1               0.0000
     28 H28        255.7966 351.1926 -84.6255 H              1 RES1               0.0000
     29 H29        257.3096 349.9227 -83.1515 H              1 RES1               0.0000
@<TRIPOS>BOND
    1    1    2 1     
    2    1    3 1     
    3    1    4 1     
    4    1    5 1     
    5    2    6 ar    
    6    2    7 ar    
    7    3    8 1     
    8    3    9 2     
    9    4   10 1     
   10    4   11 2     
   11    5   12 1     
   12    5   18 1     
   13    5   19 1     
   14    6   13 ar    
   15    6   20 1     
   16    7   14 ar    
   17    7   21 1     
   18    8   15 1     
   19    8   22 1     
   20   10   15 1     
   21   10   23 1     
   22   12   24 1     
   23   12   25 1     
   24   12   26 1     
   25   13   16 ar    
   26   13   27 1     
   27   14   16 ar    
   28   14   28 1     
   29   15   17 2     
   30   16   29 1     
@<TRIPOS>SUBSTRUCTURE
      1 RES1           1
@<TRIPOS>SET
DONOR_HYDROGENS      STATIC     ATOMS    <user>   **** ""
2 22 23
ATOM$RED        STATIC     ATOMS    COLORGROUP SYSTEM
2 22 23
@<TRIPOS>COMMENT
> <Gold.Version>
2022.3.0

> <Gold.Id.Protein>
unknown|7ts3_clean|pdb

> <Gold.Protein.RotatedTorsions>
[ 1435 1407 1406 1405 ] final    7.51 input   60.00 | X-H torsion
[ 3032 3011 3012 3013 ] final  134.40 input  108.73 | X-H torsion
[ 3038 3017 3015 3012 ] final   86.88 input   60.00 | X-H torsion
[ 6598 6536 6535 6533 ] final   47.60 input   59.96 | X-H torsion
[ 1564 1537 1535 1532 ] final  -45.49 input   60.01 | X-H torsion
[ 3090 3071 3072 3073 ] final -110.18 input  109.54 | X-H torsion
[ 3176 3157 3158 3159 ] final  -65.56 input  112.57 | X-H torsion
[ 3233 3207 3208 3209 ] final    8.07 input   86.36 | X-H torsion
[ 4250 4222 4221 4218 ] final  -39.23 input   60.02 | X-H torsion
[ 27316 3014 3013 3012 ] final  -65.81 input    0.00 | X-H torsion
[ 27318 3160 3159 3158 ] final  123.41 input    0.00 | X-H torsion

> <Gold.Protein.ActiveResidues>
 LEU321  LYS324  SER325  THR326  PRO350  ALA354  THR355  LYS356  ASP357  GLN358 
 GLU365  PHE366  GLN369  TYR370  SER372  SER373  TYR408  HIS412  ARG415  ASN416 
 TRP426  GLU670  CYS673  ARG674  GLY675  GLY676  PRO678  TYR703  ARG704  LEU705 
 THR706  PRO707 

> <Gold.Protein.RotatedAtoms>
  252.3256  349.0362  -87.2287 H   0  0  0  0  0  0  0  0  0  0  0  0  # atno 1435 bound_to 1407
  253.4485  349.0160  -88.4478 H   0  0  0  0  0  0  0  0  0  0  0  0  # atno 1436 bound_to 1407
  252.2754  347.8479  -88.3828 H   0  0  0  0  0  0  0  0  0  0  0  0  # atno 1437 bound_to 1407
  260.0070  347.3071  -82.1332 H   0  0  0  0  0  0  0  0  0  0  0  0  # atno 1564 bound_to 1537
  248.6211  347.6401  -86.8048 H   0  0  0  0  0  0  0  0  0  0  0  0  # atno 3032 bound_to 3011
  247.0186  348.4727  -83.7063 H   0  0  0  0  0  0  0  0  0  0  0  0  # atno 3038 bound_to 3017
  246.1600  345.4813  -84.9775 H   0  0  0  0  0  0  0  0  0  0  0  0  # atno 3090 bound_to 3071
  243.7751  346.8923  -83.3297 H   0  0  0  0  0  0  0  0  0  0  0  0  # atno 3176 bound_to 3157
  243.6207  348.4814  -84.6111 H   0  0  0  0  0  0  0  0  0  0  0  0  # atno 3233 bound_to 3207
  248.4626  358.5169  -82.2749 H   0  0  0  0  0  0  0  0  0  0  0  0  # atno 4250 bound_to 4222
  250.8676  355.2948  -80.9309 H   0  0  0  0  0  0  0  0  0  0  0  0  # atno 6598 bound_to 6536
  247.4007  346.6083  -87.5052 LP  0  0  0  0  0  0  0  0  0  0  0  0  # atno 27275 bound_to 3011
  247.5962  348.7271  -85.2066 LP  0  0  0  0  0  0  0  0  0  0  0  0  # atno 27276 bound_to 3017
  248.5194  349.0709  -83.9042 LP  0  0  0  0  0  0  0  0  0  0  0  0  # atno 27277 bound_to 3017
  251.7365  354.5724  -79.7600 LP  0  0  0  0  0  0  0  0  0  0  0  0  # atno 27290 bound_to 6536
  252.4881  355.2191  -81.0576 LP  0  0  0  0  0  0  0  0  0  0  0  0  # atno 27291 bound_to 6536
  260.7122  348.7700  -82.0299 LP  0  0  0  0  0  0  0  0  0  0  0  0  # atno 27298 bound_to 1537
  261.4130  347.4713  -81.3307 LP  0  0  0  0  0  0  0  0  0  0  0  0  # atno 27299 bound_to 1537
  246.3611  345.8515  -83.2858 LP  0  0  0  0  0  0  0  0  0  0  0  0  # atno 27306 bound_to 3071
  245.0784  347.3387  -82.2608 LP  0  0  0  0  0  0  0  0  0  0  0  0  # atno 27307 bound_to 3157
  244.7123  349.7033  -83.9937 LP  0  0  0  0  0  0  0  0  0  0  0  0  # atno 27308 bound_to 3207
  249.3947  358.1822  -80.9839 LP  0  0  0  0  0  0  0  0  0  0  0  0  # atno 27309 bound_to 4222
  247.7725  358.2740  -80.8215 LP  0  0  0  0  0  0  0  0  0  0  0  0  # atno 27310 bound_to 4222
  245.3123  347.7161  -86.0577 LP  0  0  0  0  0  0  0  0  0  0  0  0  # atno 27316 bound_to 3014
  244.7281  346.1379  -86.4677 LP  0  0  0  0  0  0  0  0  0  0  0  0  # atno 27317 bound_to 3014
  243.2306  351.6428  -83.7828 LP  0  0  0  0  0  0  0  0  0  0  0  0  # atno 27318 bound_to 3160
  241.8357  350.7154  -83.3423 LP  0  0  0  0  0  0  0  0  0  0  0  0  # atno 27319 bound_to 3160

> <Gold.Score>
     Fitness  S(hb_ext) S(vdw_ext)  S(hb_int)    S(int)      intcor
     41.89       1.93      30.01       0.00      -1.30      -0.81

> <Gold.Goldscore.Fitness>
41.8859

> <Gold.Goldscore.Internal.Vdw>
-1.6054

> <Gold.Goldscore.Internal.Torsion>
-0.5003

> <Gold.Goldscore.External.Vdw>
30.0053

> <Gold.Goldscore.Internal.HBond>
0.0000

> <Gold.Goldscore.External.HBond>
1.9263

> <Gold.Goldscore.Internal.Correction>
-0.8080

> <Gold.Goldscore.Hbonds>
donor molecule, donor type, donor heavy atom, donor atom, acceptor molecule, acceptor atom, score
      P1  H  6536  6598       L1    17  0.02
      P1  H 23649 23708       L1     9  0.31
      L1  H     8    22       P1  6536  0.02

> <Gold.Goldscore.Internal.Vdw.Weighted>
-1.6054

> <Gold.Goldscore.Internal.Torsion.Weighted>
-0.5003

> <Gold.Goldscore.External.Vdw.Weighted>
41.2572

> <Gold.Goldscore.Internal.HBond.Weighted>
0.0000

> <Gold.Goldscore.External.HBond.Weighted>
1.9263

> <Gold.Goldscore.Internal.Correction.Weighted>
-0.8080

> <Gold.Rescore>
     Score     S(PLP)   S(hbond)     S(cho)   S(metal)  DE(clash)   DE(tors)     intcor
     43.45     -40.08       1.62       0.00       0.00       1.35       0.06       ----

> <Gold.PLP.Fitness>
43.4464

> <Gold.PLP.PLP>
-40.0804

> <Gold.PLP.part.hbond>
-3.6894

> <Gold.PLP.part.metal>
0.0000

> <Gold.PLP.part.buried>
-5.3516

> <Gold.PLP.part.nonpolar>
-33.9805

> <Gold.PLP.part.repulsive>
1.1109

> <Gold.PLP.ligand.clash>
1.3545

> <Gold.PLP.ligand.torsion>
0.0625

> <Gold.PLP.Chemscore.Hbond>
1.6151

> <Gold.PLP.Chemscore.CHOScore>
0.0000

> <Gold.PLP.Chemscore.Metal>
0.0000

> <Gold.Chemscore.Hbonds>
donor molecule, donor type, donor heavy atom, donor atom, acceptor molecule, acceptor atom, score
      L1  H     8    22       P1  6536  0.16
      P1  H  6536  6598       L1    17  0.59
      P1  H 23649 23708       L1     9  0.85

> <Gold.PLP.Chemscore.Internal.Correction>
   9.000000E+99

