#       Name:                CT1002167954
#       Creating user name   hitesit
#       Creation time:       Sun Apr 16 02:25:33 2023


#       File generated by GOLD software.
#

@<TRIPOS>MOLECULE
CT1002167954|ligand_prepared|mol2|1|dock8
    29    30     1
SMALL
NO_CHARGES


@<TRIPOS>ATOM
      1 C1         251.3405 350.8481 -82.6150 C.3            1 RES1               0.0000
      2 C2         252.1364 351.0641 -83.9183 C.ar           1 RES1               0.0000
      3 C3         252.1578 349.8752 -81.7701 C.2            1 RES1               0.0000
      4 C4         251.1696 352.2265 -81.9861 C.2            1 RES1               0.0000
      5 C5         249.9334 350.2455 -82.8348 C.3            1 RES1               0.0000
      6 C6         251.6253 351.8632 -84.9366 C.ar           1 RES1               0.0000
      7 C7         253.3820 350.4740 -84.1155 C.ar           1 RES1               0.0000
      8 N8         252.8193 350.3789 -80.6890 N.am           1 RES1               0.0000
      9 O9         252.2525 348.6916 -82.0706 O.2            1 RES1               0.0000
     10 N10        251.7904 352.4673 -80.7885 N.am           1 RES1               0.0000
     11 O11        250.5167 353.1116 -82.5251 O.2            1 RES1               0.0000
     12 C12        249.1733 349.9766 -81.5456 C.3            1 RES1               0.0000
     13 C13        252.3350 352.0676 -86.1083 C.ar           1 RES1               0.0000
     14 C14        254.0900 350.6794 -85.2882 C.ar           1 RES1               0.0000
     15 C15        252.6327 351.6160 -80.1265 C.2            1 RES1               0.0000
     16 C16        253.5678 351.4763 -86.2847 C.ar           1 RES1               0.0000
     17 O17        253.1968 351.9248 -79.0808 O.2            1 RES1               0.0000
     18 H18        249.3464 350.9355 -83.4534 H              1 RES1               0.0000
     19 H19        250.0351 349.3034 -83.3877 H              1 RES1               0.0000
     20 H20        250.6557 352.3348 -84.8167 H              1 RES1               0.0000
     21 H21        253.8120 349.8423 -83.3456 H              1 RES1               0.0000
     22 H22        253.5173 349.7803 -80.2591 H              1 RES1               0.0000
     23 H23        251.6077 353.3641 -80.3497 H              1 RES1               0.0000
     24 H24        248.1930 349.5544 -81.7566 H              1 RES1               0.0000
     25 H25        249.7165 349.2742 -80.9168 H              1 RES1               0.0000
     26 H26        249.0319 350.8966 -80.9822 H              1 RES1               0.0000
     27 H27        251.9191 352.6944 -86.8901 H              1 RES1               0.0000
     28 H28        255.0596 350.2116 -85.4229 H              1 RES1               0.0000
     29 H29        254.1237 351.6368 -87.2026 H              1 RES1               0.0000
@<TRIPOS>BOND
    1    1    2 1     
    2    1    3 1     
    3    1    4 1     
    4    1    5 1     
    5    2    6 ar    
    6    2    7 ar    
    7    3    8 1     
    8    3    9 2     
    9    4   10 1     
   10    4   11 2     
   11    5   12 1     
   12    5   18 1     
   13    5   19 1     
   14    6   13 ar    
   15    6   20 1     
   16    7   14 ar    
   17    7   21 1     
   18    8   15 1     
   19    8   22 1     
   20   10   15 1     
   21   10   23 1     
   22   12   24 1     
   23   12   25 1     
   24   12   26 1     
   25   13   16 ar    
   26   13   27 1     
   27   14   16 ar    
   28   14   28 1     
   29   15   17 2     
   30   16   29 1     
@<TRIPOS>SUBSTRUCTURE
      1 RES1           1
@<TRIPOS>SET
DONOR_HYDROGENS      STATIC     ATOMS    <user>   **** ""
2 22 23
ATOM$RED        STATIC     ATOMS    COLORGROUP SYSTEM
2 22 23
@<TRIPOS>COMMENT
> <Gold.Version>
2022.3.0

> <Gold.Id.Protein>
unknown|7ts3_clean|pdb

> <Gold.Protein.RotatedTorsions>
[ 1435 1407 1406 1405 ] final   28.48 input   60.00 | X-H torsion
[ 3032 3011 3012 3013 ] final -131.09 input  108.73 | X-H torsion
[ 3038 3017 3015 3012 ] final  -53.40 input   60.00 | X-H torsion
[ 6598 6536 6535 6533 ] final  148.18 input   59.96 | X-H torsion
[ 1564 1537 1535 1532 ] final   80.89 input   60.01 | X-H torsion
[ 3090 3071 3072 3073 ] final  -37.44 input  109.54 | X-H torsion
[ 3176 3157 3158 3159 ] final   71.44 input  112.57 | X-H torsion
[ 3233 3207 3208 3209 ] final    2.93 input   86.36 | X-H torsion
[ 4250 4222 4221 4218 ] final -149.64 input   60.02 | X-H torsion
[ 27316 3014 3013 3012 ] final  -44.76 input    0.00 | X-H torsion
[ 27318 3160 3159 3158 ] final -156.41 input    0.00 | X-H torsion

> <Gold.Protein.ActiveResidues>
 LEU321  LYS324  SER325  THR326  PRO350  ALA354  THR355  LYS356  ASP357  GLN358 
 GLU365  PHE366  GLN369  TYR370  SER372  SER373  TYR408  HIS412  ARG415  ASN416 
 TRP426  GLU670  CYS673  ARG674  GLY675  GLY676  PRO678  TYR703  ARG704  LEU705 
 THR706  PRO707 

> <Gold.Protein.RotatedAtoms>
  252.5919  349.2511  -87.2946 H   0  0  0  0  0  0  0  0  0  0  0  0  # atno 1435 bound_to 1407
  253.3873  348.7450  -88.6580 H   0  0  0  0  0  0  0  0  0  0  0  0  # atno 1436 bound_to 1407
  252.0705  347.9040  -88.1070 H   0  0  0  0  0  0  0  0  0  0  0  0  # atno 1437 bound_to 1407
  261.4504  347.5693  -81.3329 H   0  0  0  0  0  0  0  0  0  0  0  0  # atno 1564 bound_to 1537
  248.5677  346.4737  -87.3546 H   0  0  0  0  0  0  0  0  0  0  0  0  # atno 3032 bound_to 3011
  247.9044  348.8455  -85.1831 H   0  0  0  0  0  0  0  0  0  0  0  0  # atno 3038 bound_to 3017
  246.0875  346.4203  -84.5397 H   0  0  0  0  0  0  0  0  0  0  0  0  # atno 3090 bound_to 3071
  245.2045  347.5218  -82.8601 H   0  0  0  0  0  0  0  0  0  0  0  0  # atno 3176 bound_to 3157
  243.5607  348.5251  -84.5815 H   0  0  0  0  0  0  0  0  0  0  0  0  # atno 3233 bound_to 3207
  249.4426  358.2064  -81.1318 H   0  0  0  0  0  0  0  0  0  0  0  0  # atno 4250 bound_to 4222
  252.2709  355.3466  -81.2503 H   0  0  0  0  0  0  0  0  0  0  0  0  # atno 6598 bound_to 6536
  247.4534  347.7580  -86.9632 LP  0  0  0  0  0  0  0  0  0  0  0  0  # atno 27275 bound_to 3011
  248.3526  349.0007  -83.6261 LP  0  0  0  0  0  0  0  0  0  0  0  0  # atno 27276 bound_to 3017
  246.8716  348.4222  -83.9984 LP  0  0  0  0  0  0  0  0  0  0  0  0  # atno 27277 bound_to 3017
  250.7646  355.1554  -80.6653 LP  0  0  0  0  0  0  0  0  0  0  0  0  # atno 27290 bound_to 6536
  252.0465  354.5838  -79.8306 LP  0  0  0  0  0  0  0  0  0  0  0  0  # atno 27291 bound_to 6536
  260.0501  347.2238  -82.0864 LP  0  0  0  0  0  0  0  0  0  0  0  0  # atno 27298 bound_to 1537
  260.6215  348.7535  -82.0802 LP  0  0  0  0  0  0  0  0  0  0  0  0  # atno 27299 bound_to 1537
  246.4330  344.9212  -83.7197 LP  0  0  0  0  0  0  0  0  0  0  0  0  # atno 27306 bound_to 3071
  243.6641  346.7159  -82.7254 LP  0  0  0  0  0  0  0  0  0  0  0  0  # atno 27307 bound_to 3157
  244.7703  349.6610  -84.0223 LP  0  0  0  0  0  0  0  0  0  0  0  0  # atno 27308 bound_to 3207
  247.8730  358.2421  -80.7042 LP  0  0  0  0  0  0  0  0  0  0  0  0  # atno 27309 bound_to 4222
  248.3072  358.5268  -82.2525 LP  0  0  0  0  0  0  0  0  0  0  0  0  # atno 27310 bound_to 4222
  245.5023  347.6454  -86.3005 LP  0  0  0  0  0  0  0  0  0  0  0  0  # atno 27316 bound_to 3014
  244.5381  346.2086  -86.2248 LP  0  0  0  0  0  0  0  0  0  0  0  0  # atno 27317 bound_to 3014
  242.4507  351.1697  -84.4246 LP  0  0  0  0  0  0  0  0  0  0  0  0  # atno 27318 bound_to 3160
  242.6157  351.1885  -82.7005 LP  0  0  0  0  0  0  0  0  0  0  0  0  # atno 27319 bound_to 3160

> <Gold.Score>
     Fitness  S(hb_ext) S(vdw_ext)  S(hb_int)    S(int)      intcor
     32.32       1.29      24.40       0.00      -2.51      -0.76

> <Gold.Goldscore.Fitness>
32.3210

> <Gold.Goldscore.Internal.Vdw>
-2.8915

> <Gold.Goldscore.Internal.Torsion>
-0.3787

> <Gold.Goldscore.External.Vdw>
24.3950

> <Gold.Goldscore.Internal.HBond>
0.0000

> <Gold.Goldscore.External.HBond>
1.2861

> <Gold.Goldscore.Internal.Correction>
-0.7620

> <Gold.Goldscore.Hbonds>
donor molecule, donor type, donor heavy atom, donor atom, acceptor molecule, acceptor atom, score
      P1  H  6772  6817       L1    17  0.29
      P1  H  7071  7113       L1    17  0.34
      L1  H    10    23       P1  6536  0.02

> <Gold.Goldscore.Internal.Vdw.Weighted>
-2.8915

> <Gold.Goldscore.Internal.Torsion.Weighted>
-0.3787

> <Gold.Goldscore.External.Vdw.Weighted>
33.5431

> <Gold.Goldscore.Internal.HBond.Weighted>
0.0000

> <Gold.Goldscore.External.HBond.Weighted>
1.2861

> <Gold.Goldscore.Internal.Correction.Weighted>
-0.7620

> <Gold.Rescore>
     Score     S(PLP)   S(hbond)     S(cho)   S(metal)  DE(clash)   DE(tors)     intcor
     30.69     -29.89       0.91       0.00       0.00       1.29       0.32       ----

> <Gold.PLP.Fitness>
30.6891

> <Gold.PLP.PLP>
-29.8871

> <Gold.PLP.part.hbond>
-3.1019

> <Gold.PLP.part.metal>
0.0000

> <Gold.PLP.part.buried>
-0.0761

> <Gold.PLP.part.nonpolar>
-30.6793

> <Gold.PLP.part.repulsive>
3.3666

> <Gold.PLP.ligand.clash>
1.2945

> <Gold.PLP.ligand.torsion>
0.3197

> <Gold.PLP.Chemscore.Hbond>
0.9120

> <Gold.PLP.Chemscore.CHOScore>
0.0000

> <Gold.PLP.Chemscore.Metal>
0.0000

> <Gold.Chemscore.Hbonds>
donor molecule, donor type, donor heavy atom, donor atom, acceptor molecule, acceptor atom, score
      L1  H    10    23       P1  6536  0.73
      P1  H  6772  6817       L1    17  0.82

> <Gold.PLP.Chemscore.Internal.Correction>
   9.000000E+99

