#       Name:                CT1002167954
#       Creating user name   hitesit
#       Creation time:       Sun Apr 16 02:25:34 2023


#       File generated by GOLD software.
#

@<TRIPOS>MOLECULE
CT1002167954|ligand_prepared|mol2|1|dock9
    29    30     1
SMALL
NO_CHARGES


@<TRIPOS>ATOM
      1 C1         252.4083 350.1578 -81.8701 C.3            1 RES1               0.0000
      2 C2         251.2320 351.1327 -81.6585 C.ar           1 RES1               0.0000
      3 C3         252.5839 350.0195 -83.3795 C.2            1 RES1               0.0000
      4 C4         253.6071 350.7749 -81.1582 C.2            1 RES1               0.0000
      5 C5         252.1696 348.7516 -81.2724 C.3            1 RES1               0.0000
      6 C6         250.7052 351.3423 -80.3876 C.ar           1 RES1               0.0000
      7 C7         250.6659 351.8303 -82.7222 C.ar           1 RES1               0.0000
      8 N8         253.6546 350.6417 -83.9506 N.am           1 RES1               0.0000
      9 O9         251.7734 349.4068 -84.0636 O.2            1 RES1               0.0000
     10 N10        254.6689 351.1811 -81.9233 N.am           1 RES1               0.0000
     11 O11        253.6348 350.9282 -79.9433 O.2            1 RES1               0.0000
     12 C12        253.4086 347.8702 -81.2648 C.3            1 RES1               0.0000
     13 C13        249.6526 352.2198 -80.1867 C.ar           1 RES1               0.0000
     14 C14        249.6131 352.7072 -82.5192 C.ar           1 RES1               0.0000
     15 C15        254.7342 351.1706 -83.2900 C.2            1 RES1               0.0000
     16 C16        249.1062 352.9031 -81.2522 C.ar           1 RES1               0.0000
     17 O17        255.7020 351.6037 -83.9088 O.2            1 RES1               0.0000
     18 H18        251.8087 348.8623 -80.2424 H              1 RES1               0.0000
     19 H19        251.3836 348.2507 -81.8511 H              1 RES1               0.0000
     20 H20        251.1206 350.8116 -79.5374 H              1 RES1               0.0000
     21 H21        251.0478 351.6912 -83.7279 H              1 RES1               0.0000
     22 H22        253.6525 350.7212 -84.9625 H              1 RES1               0.0000
     23 H23        255.4864 351.5229 -81.4280 H              1 RES1               0.0000
     24 H24        253.1861 346.8956 -80.8355 H              1 RES1               0.0000
     25 H25        253.7801 347.7182 -82.2761 H              1 RES1               0.0000
     26 H26        254.2027 348.3261 -80.6770 H              1 RES1               0.0000
     27 H27        249.2563 352.3694 -79.1878 H              1 RES1               0.0000
     28 H28        249.1858 353.2424 -83.3607 H              1 RES1               0.0000
     29 H29        248.2818 353.5907 -81.0945 H              1 RES1               0.0000
@<TRIPOS>BOND
    1    1    2 1     
    2    1    3 1     
    3    1    4 1     
    4    1    5 1     
    5    2    6 ar    
    6    2    7 ar    
    7    3    8 1     
    8    3    9 2     
    9    4   10 1     
   10    4   11 2     
   11    5   12 1     
   12    5   18 1     
   13    5   19 1     
   14    6   13 ar    
   15    6   20 1     
   16    7   14 ar    
   17    7   21 1     
   18    8   15 1     
   19    8   22 1     
   20   10   15 1     
   21   10   23 1     
   22   12   24 1     
   23   12   25 1     
   24   12   26 1     
   25   13   16 ar    
   26   13   27 1     
   27   14   16 ar    
   28   14   28 1     
   29   15   17 2     
   30   16   29 1     
@<TRIPOS>SUBSTRUCTURE
      1 RES1           1
@<TRIPOS>SET
DONOR_HYDROGENS      STATIC     ATOMS    <user>   **** ""
2 22 23
ATOM$RED        STATIC     ATOMS    COLORGROUP SYSTEM
2 22 23
@<TRIPOS>COMMENT
> <Gold.Version>
2022.3.0

> <Gold.Id.Protein>
unknown|7ts3_clean|pdb

> <Gold.Protein.RotatedTorsions>
[ 1435 1407 1406 1405 ] final   38.21 input   60.00 | X-H torsion
[ 3032 3011 3012 3013 ] final   19.19 input  108.73 | X-H torsion
[ 3038 3017 3015 3012 ] final  136.74 input   60.00 | X-H torsion
[ 6598 6536 6535 6533 ] final  162.18 input   59.96 | X-H torsion
[ 1564 1537 1535 1532 ] final  -12.81 input   60.01 | X-H torsion
[ 3090 3071 3072 3073 ] final  -58.93 input  109.54 | X-H torsion
[ 3176 3157 3158 3159 ] final   13.01 input  112.57 | X-H torsion
[ 3233 3207 3208 3209 ] final  144.47 input   86.36 | X-H torsion
[ 4250 4222 4221 4218 ] final -113.37 input   60.02 | X-H torsion
[ 27316 3014 3013 3012 ] final   94.64 input    0.00 | X-H torsion
[ 27318 3160 3159 3158 ] final  171.09 input    0.00 | X-H torsion

> <Gold.Protein.ActiveResidues>
 LEU321  LYS324  SER325  THR326  PRO350  ALA354  THR355  LYS356  ASP357  GLN358 
 GLU365  PHE366  GLN369  TYR370  SER372  SER373  TYR408  HIS412  ARG415  ASN416 
 TRP426  GLU670  CYS673  ARG674  GLY675  GLY676  PRO678  TYR703  ARG704  LEU705 
 THR706  PRO707 

> <Gold.Protein.RotatedAtoms>
  252.7217  349.3243  -87.3588 H   0  0  0  0  0  0  0  0  0  0  0  0  # atno 1435 bound_to 1407
  253.3263  348.6121  -88.7280 H   0  0  0  0  0  0  0  0  0  0  0  0  # atno 1436 bound_to 1407
  252.0018  347.9637  -87.9729 H   0  0  0  0  0  0  0  0  0  0  0  0  # atno 1437 bound_to 1407
  260.3352  346.9907  -81.8693 H   0  0  0  0  0  0  0  0  0  0  0  0  # atno 1564 bound_to 1537
  247.1932  347.4530  -87.1624 H   0  0  0  0  0  0  0  0  0  0  0  0  # atno 3032 bound_to 3011
  247.6693  348.7236  -83.3359 H   0  0  0  0  0  0  0  0  0  0  0  0  # atno 3038 bound_to 3017
  246.0790  346.2107  -84.7899 H   0  0  0  0  0  0  0  0  0  0  0  0  # atno 3090 bound_to 3071
  244.7193  347.4286  -83.5588 H   0  0  0  0  0  0  0  0  0  0  0  0  # atno 3176 bound_to 3157
  245.0552  349.2457  -84.3055 H   0  0  0  0  0  0  0  0  0  0  0  0  # atno 3233 bound_to 3207
  249.4155  358.3255  -81.7015 H   0  0  0  0  0  0  0  0  0  0  0  0  # atno 4250 bound_to 4222
  252.4316  355.2579  -81.1147 H   0  0  0  0  0  0  0  0  0  0  0  0  # atno 6598 bound_to 6536
  248.8082  346.7927  -87.1527 LP  0  0  0  0  0  0  0  0  0  0  0  0  # atno 27275 bound_to 3011
  246.9718  348.4741  -84.7852 LP  0  0  0  0  0  0  0  0  0  0  0  0  # atno 27276 bound_to 3017
  248.4891  349.0714  -84.6983 LP  0  0  0  0  0  0  0  0  0  0  0  0  # atno 27277 bound_to 3017
  250.8241  355.2583  -80.8620 LP  0  0  0  0  0  0  0  0  0  0  0  0  # atno 27290 bound_to 6536
  251.8251  354.5703  -79.7704 LP  0  0  0  0  0  0  0  0  0  0  0  0  # atno 27291 bound_to 6536
  260.2713  348.5718  -82.2487 LP  0  0  0  0  0  0  0  0  0  0  0  0  # atno 27298 bound_to 1537
  261.5233  347.9881  -81.3778 LP  0  0  0  0  0  0  0  0  0  0  0  0  # atno 27299 bound_to 1537
  246.4414  345.1288  -83.4718 LP  0  0  0  0  0  0  0  0  0  0  0  0  # atno 27306 bound_to 3071
  244.1442  346.8080  -82.0341 LP  0  0  0  0  0  0  0  0  0  0  0  0  # atno 27307 bound_to 3157
  243.3269  348.9651  -84.2889 LP  0  0  0  0  0  0  0  0  0  0  0  0  # atno 27308 bound_to 3207
  248.3928  358.1494  -80.4482 LP  0  0  0  0  0  0  0  0  0  0  0  0  # atno 27309 bound_to 4222
  247.8146  358.4995  -81.9347 LP  0  0  0  0  0  0  0  0  0  0  0  0  # atno 27310 bound_to 4222
  244.9402  346.1666  -86.6694 LP  0  0  0  0  0  0  0  0  0  0  0  0  # atno 27316 bound_to 3014
  245.1002  347.6874  -85.8559 LP  0  0  0  0  0  0  0  0  0  0  0  0  # atno 27317 bound_to 3014
  242.8515  351.4248  -84.3296 LP  0  0  0  0  0  0  0  0  0  0  0  0  # atno 27318 bound_to 3160
  242.2148  350.9334  -82.7956 LP  0  0  0  0  0  0  0  0  0  0  0  0  # atno 27319 bound_to 3160

> <Gold.Score>
     Fitness  S(hb_ext) S(vdw_ext)  S(hb_int)    S(int)      intcor
     32.38       2.43      23.89       0.00      -2.90      -0.76

> <Gold.Goldscore.Fitness>
32.3813

> <Gold.Goldscore.Internal.Vdw>
-3.1402

> <Gold.Goldscore.Internal.Torsion>
-0.5229

> <Gold.Goldscore.External.Vdw>
23.8902

> <Gold.Goldscore.Internal.HBond>
0.0000

> <Gold.Goldscore.External.HBond>
2.4334

> <Gold.Goldscore.Internal.Correction>
-0.7620

> <Gold.Goldscore.Hbonds>
donor molecule, donor type, donor heavy atom, donor atom, acceptor molecule, acceptor atom, score
      P1  H 23649 23708       L1    11  0.09
      L1  H    10    23       P1 25659  0.94

> <Gold.Goldscore.Internal.Vdw.Weighted>
-3.1402

> <Gold.Goldscore.Internal.Torsion.Weighted>
-0.5229

> <Gold.Goldscore.External.Vdw.Weighted>
32.8491

> <Gold.Goldscore.Internal.HBond.Weighted>
0.0000

> <Gold.Goldscore.External.HBond.Weighted>
2.4334

> <Gold.Goldscore.Internal.Correction.Weighted>
-0.7620

> <Gold.Rescore>
     Score     S(PLP)   S(hbond)     S(cho)   S(metal)  DE(clash)   DE(tors)     intcor
     28.59     -28.00       1.03       0.00       0.00       1.32       0.59       ----

> <Gold.PLP.Fitness>
28.5938

> <Gold.PLP.PLP>
-28.0028

> <Gold.PLP.part.hbond>
-2.6380

> <Gold.PLP.part.metal>
0.0000

> <Gold.PLP.part.buried>
-3.4999

> <Gold.PLP.part.nonpolar>
-22.4392

> <Gold.PLP.part.repulsive>
0.5419

> <Gold.PLP.ligand.clash>
1.3158

> <Gold.PLP.ligand.torsion>
0.5864

> <Gold.PLP.Chemscore.Hbond>
1.0265

> <Gold.PLP.Chemscore.CHOScore>
0.0000

> <Gold.PLP.Chemscore.Metal>
0.0000

> <Gold.Chemscore.Hbonds>
donor molecule, donor type, donor heavy atom, donor atom, acceptor molecule, acceptor atom, score
      L1  H    10    23       P1 25659  0.50
      P1  H 23649 23708       L1    11  0.60

> <Gold.PLP.Chemscore.Internal.Correction>
   9.000000E+99

