#       Name:                CT1002167954
#       Creating user name   hitesit
#       Creation time:       Sun Apr 16 02:22:08 2023


#       File generated by GOLD software.
#

@<TRIPOS>MOLECULE
CT1002167954|ligand_prepared|mol2|1|dock10
    29    30     1
SMALL
NO_CHARGES


@<TRIPOS>ATOM
      1 C1          48.5313  18.5432   8.5926 C.3            1 RES1               0.0000
      2 C2          47.8750  19.9049   8.8990 C.ar           1 RES1               0.0000
      3 C3          50.0213  18.8170   8.4106 C.2            1 RES1               0.0000
      4 C4          48.2051  17.6368   9.7744 C.2            1 RES1               0.0000
      5 C5          47.9960  17.8663   7.3093 C.3            1 RES1               0.0000
      6 C6          46.4900  20.0409   8.8952 C.ar           1 RES1               0.0000
      7 C7          48.6400  21.0314   9.1895 C.ar           1 RES1               0.0000
      8 N8          50.8620  18.4286   9.4118 N.am           1 RES1               0.0000
      9 O9          50.4477  19.4003   7.4216 O.2            1 RES1               0.0000
     10 N10         49.2418  17.2134  10.5642 N.am           1 RES1               0.0000
     11 O11         47.0578  17.2990  10.0386 O.2            1 RES1               0.0000
     12 C12         47.7870  18.8281   6.1503 C.3            1 RES1               0.0000
     13 C13         45.8913  21.2582   9.1745 C.ar           1 RES1               0.0000
     14 C14         48.0392  22.2479   9.4683 C.ar           1 RES1               0.0000
     15 C15         50.5518  17.5932  10.4546 C.2            1 RES1               0.0000
     16 C16         46.6653  22.3623   9.4616 C.ar           1 RES1               0.0000
     17 O17         51.4180  17.2124  11.2368 O.2            1 RES1               0.0000
     18 H18         48.7039  17.0879   6.9990 H              1 RES1               0.0000
     19 H19         47.0409  17.3783   7.5397 H              1 RES1               0.0000
     20 H20         45.8647  19.1836   8.6690 H              1 RES1               0.0000
     21 H21         49.7227  20.9651   9.1994 H              1 RES1               0.0000
     22 H22         51.8089  18.7931   9.3824 H              1 RES1               0.0000
     23 H23         49.0161  16.5540  11.3021 H              1 RES1               0.0000
     24 H24         47.4108  18.3020   5.2755 H              1 RES1               0.0000
     25 H25         47.0691  19.6015   6.4154 H              1 RES1               0.0000
     26 H26         48.7223  19.3129   5.8779 H              1 RES1               0.0000
     27 H27         44.8097  21.3433   9.1666 H              1 RES1               0.0000
     28 H28         48.6523  23.1143   9.6932 H              1 RES1               0.0000
     29 H29         46.1960  23.3156   9.6808 H              1 RES1               0.0000
@<TRIPOS>BOND
    1    1    2 1     
    2    1    3 1     
    3    1    4 1     
    4    1    5 1     
    5    2    6 ar    
    6    2    7 ar    
    7    3    8 1     
    8    3    9 2     
    9    4   10 1     
   10    4   11 2     
   11    5   12 1     
   12    5   18 1     
   13    5   19 1     
   14    6   13 ar    
   15    6   20 1     
   16    7   14 ar    
   17    7   21 1     
   18    8   15 1     
   19    8   22 1     
   20   10   15 1     
   21   10   23 1     
   22   12   24 1     
   23   12   25 1     
   24   12   26 1     
   25   13   16 ar    
   26   13   27 1     
   27   14   16 ar    
   28   14   28 1     
   29   15   17 2     
   30   16   29 1     
@<TRIPOS>SUBSTRUCTURE
      1 RES1           1
@<TRIPOS>SET
DONOR_HYDROGENS      STATIC     ATOMS    <user>   **** ""
2 22 23
ATOM$RED        STATIC     ATOMS    COLORGROUP SYSTEM
2 22 23
@<TRIPOS>COMMENT
> <Gold.Version>
2022.3.0

> <Gold.Id.Protein>
unknown|7chy_cavity_clean|pdb

> <Gold.Protein.RotatedTorsions>
[ 1696 1688 1689 1690 ] final   35.35 input  114.12 | X-H torsion
[ 5510 5505 5504 5501 ] final  -66.99 input   60.02 | X-H torsion
[ 6840 6832 6833 6834 ] final  -67.99 input   71.87 | X-H torsion
[ 1597 1590 1591 1592 ] final  121.56 input  -92.84 | X-H torsion
[ 1613 1611 1610 1608 ] final  139.73 input   60.03 | X-H torsion
[ 8773 1691 1690 1689 ] final  149.66 input   -0.00 | X-H torsion
[ 8800 1593 1592 1591 ] final  -50.86 input    0.00 | X-H torsion

> <Gold.Protein.ActiveResidues>
 GLY101  TYR102  ASN104  ILE106  SER241  GLN242  ALA243  MET246  PRO247  PHE249 
 GLN257  ASP258  ALA52   ASP70   PHE71   ARG108 

> <Gold.Protein.RotatedAtoms>
   49.1406   -5.7745    8.7217 H   0  0  0  0  0  0  0  0  0  0  0  0  # atno 1597 bound_to 1590
   55.6375   26.8748    7.8822 H   0  0  0  0  0  0  0  0  0  0  0  0  # atno 1613 bound_to 1611
   42.1226  -10.4571   -6.1615 H   0  0  0  0  0  0  0  0  0  0  0  0  # atno 1696 bound_to 1688
   52.2563   21.3323   12.4384 H   0  0  0  0  0  0  0  0  0  0  0  0  # atno 5510 bound_to 5505
   40.5599    5.7430   15.8517 H   0  0  0  0  0  0  0  0  0  0  0  0  # atno 6840 bound_to 6832
   41.9314   -8.8870   -5.3986 LP  0  0  0  0  0  0  0  0  0  0  0  0  # atno 8772 bound_to 1688
   40.1197  -12.4204   -7.6306 LP  0  0  0  0  0  0  0  0  0  0  0  0  # atno 8773 bound_to 1691
   41.3473  -11.4165   -8.3273 LP  0  0  0  0  0  0  0  0  0  0  0  0  # atno 8774 bound_to 1691
   53.8303   21.2004   12.0470 LP  0  0  0  0  0  0  0  0  0  0  0  0  # atno 8781 bound_to 5505
   53.3958   21.6372   13.5593 LP  0  0  0  0  0  0  0  0  0  0  0  0  # atno 8782 bound_to 5505
   47.5997   -5.0450    9.1359 LP  0  0  0  0  0  0  0  0  0  0  0  0  # atno 8799 bound_to 1590
   46.8302   -7.5185    7.7613 LP  0  0  0  0  0  0  0  0  0  0  0  0  # atno 8800 bound_to 1593
   45.2760   -6.7585    7.6777 LP  0  0  0  0  0  0  0  0  0  0  0  0  # atno 8801 bound_to 1593
   56.1454   27.0803    6.3499 LP  0  0  0  0  0  0  0  0  0  0  0  0  # atno 8808 bound_to 1611
   57.1632   27.3625    7.5953 LP  0  0  0  0  0  0  0  0  0  0  0  0  # atno 8809 bound_to 1611

> <Gold.Score>
     Fitness  S(hb_ext) S(vdw_ext)  S(hb_int)    S(int)      intcor
     20.23       4.02      14.09       0.00      -3.15      -0.76

> <Gold.Goldscore.Fitness>
20.2343

> <Gold.Goldscore.Internal.Vdw>
-3.0173

> <Gold.Goldscore.Internal.Torsion>
-0.8934

> <Gold.Goldscore.External.Vdw>
14.0881

> <Gold.Goldscore.Internal.HBond>
0.0000

> <Gold.Goldscore.External.HBond>
4.0153

> <Gold.Goldscore.Internal.Correction>
-0.7585

> <Gold.Goldscore.Hbonds>
donor molecule, donor type, donor heavy atom, donor atom, acceptor molecule, acceptor atom, score
      P1  H  5528  5533       L1    17  1.00
      P1  H  5724  5733       L1    11  0.96
      P1  H  5511  5520       L1    17  0.04

> <Gold.Goldscore.Internal.Vdw.Weighted>
-3.0173

> <Gold.Goldscore.Internal.Torsion.Weighted>
-0.8934

> <Gold.Goldscore.External.Vdw.Weighted>
19.3711

> <Gold.Goldscore.Internal.HBond.Weighted>
0.0000

> <Gold.Goldscore.External.HBond.Weighted>
4.0153

> <Gold.Goldscore.Internal.Correction.Weighted>
-0.7585

> <Gold.Rescore>
     Score     S(PLP)   S(hbond)     S(cho)   S(metal)  DE(clash)   DE(tors)     intcor
     22.45     -17.71       2.12       0.00       0.00       1.27       0.17       ----

> <Gold.PLP.Fitness>
22.4531

> <Gold.PLP.PLP>
-17.7122

> <Gold.PLP.part.hbond>
-3.7871

> <Gold.PLP.part.metal>
0.0000

> <Gold.PLP.part.buried>
-2.4010

> <Gold.PLP.part.nonpolar>
-13.0445

> <Gold.PLP.part.repulsive>
0.2335

> <Gold.PLP.ligand.clash>
1.2695

> <Gold.PLP.ligand.torsion>
0.1737

> <Gold.PLP.Chemscore.Hbond>
2.1193

> <Gold.PLP.Chemscore.CHOScore>
0.0000

> <Gold.PLP.Chemscore.Metal>
0.0000

> <Gold.Chemscore.Hbonds>
donor molecule, donor type, donor heavy atom, donor atom, acceptor molecule, acceptor atom, score
      P1  H  5528  5533       L1    17  0.99
      P1  H  5724  5733       L1    11  1.00
      P1  H  5511  5520       L1    17  0.59

> <Gold.PLP.Chemscore.Internal.Correction>
   9.000000E+99

