#       Name:                CT1002167954
#       Creating user name   hitesit
#       Creation time:       Sun Apr 16 02:22:01 2023


#       File generated by GOLD software.
#

@<TRIPOS>MOLECULE
CT1002167954|ligand_prepared|mol2|1|dock3
    29    30     1
SMALL
NO_CHARGES


@<TRIPOS>ATOM
      1 C1          50.4808  19.3552   8.2275 C.3            1 RES1               0.0000
      2 C2          50.4574  20.5524   9.1995 C.ar           1 RES1               0.0000
      3 C3          51.8742  19.3351   7.6060 C.2            1 RES1               0.0000
      4 C4          50.1540  18.1217   9.0620 C.2            1 RES1               0.0000
      5 C5          49.4372  19.4530   7.0905 C.3            1 RES1               0.0000
      6 C6          50.7497  20.3757  10.5486 C.ar           1 RES1               0.0000
      7 C7          50.1484  21.8377   8.7622 C.ar           1 RES1               0.0000
      8 N8          52.7386  18.3665   8.0239 N.am           1 RES1               0.0000
      9 O9          52.2225  20.1804   6.7908 O.2            1 RES1               0.0000
     10 N10         51.1296  17.1712   9.2123 N.am           1 RES1               0.0000
     11 O11         49.0661  17.9722   9.6046 O.2            1 RES1               0.0000
     12 C12         49.2601  18.1612   6.3081 C.3            1 RES1               0.0000
     13 C13         50.7365  21.4455  11.4282 C.ar           1 RES1               0.0000
     14 C14         50.1356  22.9061   9.6436 C.ar           1 RES1               0.0000
     15 C15         52.4172  17.2522   8.7565 C.2            1 RES1               0.0000
     16 C16         50.4299  22.7114  10.9763 C.ar           1 RES1               0.0000
     17 O17         53.2530  16.3808   8.9785 O.2            1 RES1               0.0000
     18 H18         48.4704  19.7397   7.5223 H              1 RES1               0.0000
     19 H19         49.7434  20.2463   6.3975 H              1 RES1               0.0000
     20 H20         50.9908  19.3864  10.9230 H              1 RES1               0.0000
     21 H21         49.9125  22.0143   7.7183 H              1 RES1               0.0000
     22 H22         53.7141  18.4814   7.7681 H              1 RES1               0.0000
     23 H23         50.8720  16.3248   9.7098 H              1 RES1               0.0000
     24 H24         48.5172  18.2847   5.5229 H              1 RES1               0.0000
     25 H25         50.1968  17.8598   5.8439 H              1 RES1               0.0000
     26 H26         48.9314  17.3562   6.9621 H              1 RES1               0.0000
     27 H27         50.9676  21.2867  12.4764 H              1 RES1               0.0000
     28 H28         49.8931  23.9006   9.2836 H              1 RES1               0.0000
     29 H29         50.4201  23.5493  11.6654 H              1 RES1               0.0000
@<TRIPOS>BOND
    1    1    2 1     
    2    1    3 1     
    3    1    4 1     
    4    1    5 1     
    5    2    6 ar    
    6    2    7 ar    
    7    3    8 1     
    8    3    9 2     
    9    4   10 1     
   10    4   11 2     
   11    5   12 1     
   12    5   18 1     
   13    5   19 1     
   14    6   13 ar    
   15    6   20 1     
   16    7   14 ar    
   17    7   21 1     
   18    8   15 1     
   19    8   22 1     
   20   10   15 1     
   21   10   23 1     
   22   12   24 1     
   23   12   25 1     
   24   12   26 1     
   25   13   16 ar    
   26   13   27 1     
   27   14   16 ar    
   28   14   28 1     
   29   15   17 2     
   30   16   29 1     
@<TRIPOS>SUBSTRUCTURE
      1 RES1           1
@<TRIPOS>SET
DONOR_HYDROGENS      STATIC     ATOMS    <user>   **** ""
2 22 23
ATOM$RED        STATIC     ATOMS    COLORGROUP SYSTEM
2 22 23
@<TRIPOS>COMMENT
> <Gold.Version>
2022.3.0

> <Gold.Id.Protein>
unknown|7chy_cavity_clean|pdb

> <Gold.Protein.RotatedTorsions>
[ 1696 1688 1689 1690 ] final -148.94 input  114.12 | X-H torsion
[ 5510 5505 5504 5501 ] final  164.07 input   60.02 | X-H torsion
[ 6840 6832 6833 6834 ] final   -4.33 input   71.87 | X-H torsion
[ 1597 1590 1591 1592 ] final   81.70 input  -92.84 | X-H torsion
[ 1613 1611 1610 1608 ] final -125.58 input   60.03 | X-H torsion
[ 8773 1691 1690 1689 ] final -109.51 input   -0.00 | X-H torsion
[ 8800 1593 1592 1591 ] final -128.60 input    0.00 | X-H torsion

> <Gold.Protein.ActiveResidues>
 GLY101  TYR102  ASN104  ILE106  SER241  GLN242  ALA243  MET246  PRO247  PHE249 
 GLN257  ASP258  ALA52   ASP70   PHE71   ARG108 

> <Gold.Protein.RotatedAtoms>
   48.7103   -6.2069    8.7651 H   0  0  0  0  0  0  0  0  0  0  0  0  # atno 1597 bound_to 1590
   56.9510   27.2841    7.9392 H   0  0  0  0  0  0  0  0  0  0  0  0  # atno 1613 bound_to 1611
   41.9390   -8.8119   -5.4553 H   0  0  0  0  0  0  0  0  0  0  0  0  # atno 1696 bound_to 1688
   53.9195   21.2287   12.1597 H   0  0  0  0  0  0  0  0  0  0  0  0  # atno 5510 bound_to 5505
   40.0457    6.4650   15.5289 H   0  0  0  0  0  0  0  0  0  0  0  0  # atno 6840 bound_to 6832
   42.1057  -10.4489   -6.0690 LP  0  0  0  0  0  0  0  0  0  0  0  0  # atno 8772 bound_to 1688
   40.4281  -11.8227   -8.7837 LP  0  0  0  0  0  0  0  0  0  0  0  0  # atno 8773 bound_to 1691
   41.0389  -12.0142   -7.1742 LP  0  0  0  0  0  0  0  0  0  0  0  0  # atno 8774 bound_to 1691
   53.2512   21.6462   13.5835 LP  0  0  0  0  0  0  0  0  0  0  0  0  # atno 8781 bound_to 5505
   52.2999   21.2957   12.3033 LP  0  0  0  0  0  0  0  0  0  0  0  0  # atno 8782 bound_to 5505
   48.0107   -4.6320    9.0945 LP  0  0  0  0  0  0  0  0  0  0  0  0  # atno 8799 bound_to 1590
   46.0117   -7.7134    7.0731 LP  0  0  0  0  0  0  0  0  0  0  0  0  # atno 8800 bound_to 1593
   46.0944   -6.5636    8.3659 LP  0  0  0  0  0  0  0  0  0  0  0  0  # atno 8801 bound_to 1593
   55.4463   26.8275    7.5207 LP  0  0  0  0  0  0  0  0  0  0  0  0  # atno 8808 bound_to 1611
   56.5392   27.2031    6.3670 LP  0  0  0  0  0  0  0  0  0  0  0  0  # atno 8809 bound_to 1611

> <Gold.Score>
     Fitness  S(hb_ext) S(vdw_ext)  S(hb_int)    S(int)      intcor
     22.94       0.80      16.59       0.00      -0.67      -0.79

> <Gold.Goldscore.Fitness>
22.9390

> <Gold.Goldscore.Internal.Vdw>
-0.8753

> <Gold.Goldscore.Internal.Torsion>
-0.5857

> <Gold.Goldscore.External.Vdw>
16.5901

> <Gold.Goldscore.Internal.HBond>
0.0000

> <Gold.Goldscore.External.HBond>
0.7973

> <Gold.Goldscore.Internal.Correction>
-0.7912

> <Gold.Goldscore.Hbonds>
donor molecule, donor type, donor heavy atom, donor atom, acceptor molecule, acceptor atom, score
      L1  H     8    22       P1  1589  0.40

> <Gold.Goldscore.Internal.Vdw.Weighted>
-0.8753

> <Gold.Goldscore.Internal.Torsion.Weighted>
-0.5857

> <Gold.Goldscore.External.Vdw.Weighted>
22.8114

> <Gold.Goldscore.Internal.HBond.Weighted>
0.0000

> <Gold.Goldscore.External.HBond.Weighted>
0.7973

> <Gold.Goldscore.Internal.Correction.Weighted>
-0.7912

> <Gold.Rescore>
     Score     S(PLP)   S(hbond)     S(cho)   S(metal)  DE(clash)   DE(tors)     intcor
     23.18     -21.53       1.23       0.00       0.00       0.00       1.02       ----

> <Gold.PLP.Fitness>
23.1765

> <Gold.PLP.PLP>
-21.5317

> <Gold.PLP.part.hbond>
-2.0000

> <Gold.PLP.part.metal>
0.0000

> <Gold.PLP.part.buried>
-3.6889

> <Gold.PLP.part.nonpolar>
-15.7864

> <Gold.PLP.part.repulsive>
0.5754

> <Gold.PLP.ligand.clash>
0.0000

> <Gold.PLP.ligand.torsion>
1.0239

> <Gold.PLP.Chemscore.Hbond>
1.2309

> <Gold.PLP.Chemscore.CHOScore>
0.0000

> <Gold.PLP.Chemscore.Metal>
0.0000

> <Gold.Chemscore.Hbonds>
donor molecule, donor type, donor heavy atom, donor atom, acceptor molecule, acceptor atom, score
      L1  H     8    22       P1  1589  1.00

> <Gold.PLP.Chemscore.Internal.Correction>
   9.000000E+99

