#       Name:                CT1002167954
#       Creating user name   hitesit
#       Creation time:       Sun Apr 16 02:22:07 2023


#       File generated by GOLD software.
#

@<TRIPOS>MOLECULE
CT1002167954|ligand_prepared|mol2|1|dock9
    29    30     1
SMALL
NO_CHARGES


@<TRIPOS>ATOM
      1 C1          50.4200  18.5069   9.0507 C.3            1 RES1               0.0000
      2 C2          49.0585  18.2444   8.3752 C.ar           1 RES1               0.0000
      3 C3          50.8120  19.9352   8.6839 C.2            1 RES1               0.0000
      4 C4          50.2052  18.2847  10.5438 C.2            1 RES1               0.0000
      5 C5          51.5439  17.5534   8.5826 C.3            1 RES1               0.0000
      6 C6          48.9937  17.6439   7.1214 C.ar           1 RES1               0.0000
      7 C7          47.8610  18.5941   8.9934 C.ar           1 RES1               0.0000
      8 N8          50.7145  20.8866   9.6561 N.am           1 RES1               0.0000
      9 O9          51.1635  20.2296   7.5481 O.2            1 RES1               0.0000
     10 N10         50.3285  19.3648  11.3780 N.am           1 RES1               0.0000
     11 O11         49.9141  17.1873  11.0035 O.2            1 RES1               0.0000
     12 C12         52.7880  17.5967   9.4559 C.3            1 RES1               0.0000
     13 C13         47.7757  17.3991   6.5091 C.ar           1 RES1               0.0000
     14 C14         46.6440  18.3486   8.3792 C.ar           1 RES1               0.0000
     15 C15         50.5431  20.6618  10.9983 C.2            1 RES1               0.0000
     16 C16         46.6002  17.7509   7.1377 C.ar           1 RES1               0.0000
     17 O17         50.5874  21.5875  11.8035 O.2            1 RES1               0.0000
     18 H18         51.1552  16.5276   8.5723 H              1 RES1               0.0000
     19 H19         51.8245  17.8160   7.5551 H              1 RES1               0.0000
     20 H20         49.9083  17.3624   6.6104 H              1 RES1               0.0000
     21 H21         47.8713  19.0664   9.9699 H              1 RES1               0.0000
     22 H22         50.7745  21.8549   9.3574 H              1 RES1               0.0000
     23 H23         50.2534  19.1854  12.3742 H              1 RES1               0.0000
     24 H24         53.5448  16.9095   9.0834 H              1 RES1               0.0000
     25 H25         53.2156  18.5971   9.4688 H              1 RES1               0.0000
     26 H26         52.5503  17.3164  10.4800 H              1 RES1               0.0000
     27 H27         47.7466  16.9297   5.5314 H              1 RES1               0.0000
     28 H28         45.7214  18.6277   8.8773 H              1 RES1               0.0000
     29 H29         45.6462  17.5587   6.6579 H              1 RES1               0.0000
@<TRIPOS>BOND
    1    1    2 1     
    2    1    3 1     
    3    1    4 1     
    4    1    5 1     
    5    2    6 ar    
    6    2    7 ar    
    7    3    8 1     
    8    3    9 2     
    9    4   10 1     
   10    4   11 2     
   11    5   12 1     
   12    5   18 1     
   13    5   19 1     
   14    6   13 ar    
   15    6   20 1     
   16    7   14 ar    
   17    7   21 1     
   18    8   15 1     
   19    8   22 1     
   20   10   15 1     
   21   10   23 1     
   22   12   24 1     
   23   12   25 1     
   24   12   26 1     
   25   13   16 ar    
   26   13   27 1     
   27   14   16 ar    
   28   14   28 1     
   29   15   17 2     
   30   16   29 1     
@<TRIPOS>SUBSTRUCTURE
      1 RES1           1
@<TRIPOS>SET
DONOR_HYDROGENS      STATIC     ATOMS    <user>   **** ""
2 22 23
ATOM$RED        STATIC     ATOMS    COLORGROUP SYSTEM
2 22 23
@<TRIPOS>COMMENT
> <Gold.Version>
2022.3.0

> <Gold.Id.Protein>
unknown|7chy_cavity_clean|pdb

> <Gold.Protein.RotatedTorsions>
[ 1696 1688 1689 1690 ] final  122.30 input  114.12 | X-H torsion
[ 5510 5505 5504 5501 ] final  -38.74 input   60.02 | X-H torsion
[ 6840 6832 6833 6834 ] final -154.33 input   71.87 | X-H torsion
[ 1597 1590 1591 1592 ] final  176.20 input  -92.84 | X-H torsion
[ 1613 1611 1610 1608 ] final  153.05 input   60.03 | X-H torsion
[ 8773 1691 1690 1689 ] final  124.84 input   -0.00 | X-H torsion
[ 8800 1593 1592 1591 ] final   40.35 input    0.00 | X-H torsion

> <Gold.Protein.ActiveResidues>
 GLY101  TYR102  ASN104  ILE106  SER241  GLN242  ALA243  MET246  PRO247  PHE249 
 GLN257  ASP258  ALA52   ASP70   PHE71   ARG108 

> <Gold.Protein.RotatedAtoms>
   49.1203   -4.9553    8.8041 H   0  0  0  0  0  0  0  0  0  0  0  0  # atno 1597 bound_to 1590
   55.7902   26.9183    8.0304 H   0  0  0  0  0  0  0  0  0  0  0  0  # atno 1613 bound_to 1611
   42.6509   -9.3512   -6.3436 H   0  0  0  0  0  0  0  0  0  0  0  0  # atno 1696 bound_to 1688
   52.2459   21.4575   12.8777 H   0  0  0  0  0  0  0  0  0  0  0  0  # atno 5510 bound_to 5505
   39.8109    5.1311   16.6018 H   0  0  0  0  0  0  0  0  0  0  0  0  # atno 6840 bound_to 6832
   41.4298   -9.9369   -5.2257 LP  0  0  0  0  0  0  0  0  0  0  0  0  # atno 8772 bound_to 1688
   40.3563  -12.3746   -7.3468 LP  0  0  0  0  0  0  0  0  0  0  0  0  # atno 8773 bound_to 1691
   41.1108  -11.4623   -8.6111 LP  0  0  0  0  0  0  0  0  0  0  0  0  # atno 8774 bound_to 1691
   53.4371   21.1402   11.8155 LP  0  0  0  0  0  0  0  0  0  0  0  0  # atno 8781 bound_to 5505
   53.7995   21.5712   13.3483 LP  0  0  0  0  0  0  0  0  0  0  0  0  # atno 8782 bound_to 5505
   47.6191   -5.8274    9.0572 LP  0  0  0  0  0  0  0  0  0  0  0  0  # atno 8799 bound_to 1590
   46.2479   -6.6249    8.3890 LP  0  0  0  0  0  0  0  0  0  0  0  0  # atno 8800 bound_to 1593
   45.8583   -7.6521    7.0500 LP  0  0  0  0  0  0  0  0  0  0  0  0  # atno 8801 bound_to 1593
   55.9461   27.0161    6.4136 LP  0  0  0  0  0  0  0  0  0  0  0  0  # atno 8808 bound_to 1611
   57.2086   27.3829    7.3822 LP  0  0  0  0  0  0  0  0  0  0  0  0  # atno 8809 bound_to 1611

> <Gold.Score>
     Fitness  S(hb_ext) S(vdw_ext)  S(hb_int)    S(int)      intcor
     27.56       0.22      20.28       0.00      -0.55      -0.76

> <Gold.Goldscore.Fitness>
27.5564

> <Gold.Goldscore.Internal.Vdw>
-0.6848

> <Gold.Goldscore.Internal.Torsion>
-0.6230

> <Gold.Goldscore.External.Vdw>
20.2774

> <Gold.Goldscore.Internal.HBond>
0.0000

> <Gold.Goldscore.External.HBond>
0.2243

> <Gold.Goldscore.Internal.Correction>
-0.7585

> <Gold.Goldscore.Hbonds>
donor molecule, donor type, donor heavy atom, donor atom, acceptor molecule, acceptor atom, score
      P1  H  5505  5510       L1    17  0.01
      P1  H  5511  5520       L1    11  0.10

> <Gold.Goldscore.Internal.Vdw.Weighted>
-0.6848

> <Gold.Goldscore.Internal.Torsion.Weighted>
-0.6230

> <Gold.Goldscore.External.Vdw.Weighted>
27.8814

> <Gold.Goldscore.Internal.HBond.Weighted>
0.0000

> <Gold.Goldscore.External.HBond.Weighted>
0.2243

> <Gold.Goldscore.Internal.Correction.Weighted>
-0.7585

> <Gold.Rescore>
     Score     S(PLP)   S(hbond)     S(cho)   S(metal)  DE(clash)   DE(tors)     intcor
     25.47     -23.95       1.14       0.00       0.00       0.00       0.95       ----

> <Gold.PLP.Fitness>
25.4749

> <Gold.PLP.PLP>
-23.9532

> <Gold.PLP.part.hbond>
-2.0000

> <Gold.PLP.part.metal>
0.0000

> <Gold.PLP.part.buried>
-4.8437

> <Gold.PLP.part.nonpolar>
-18.6543

> <Gold.PLP.part.repulsive>
0.4676

> <Gold.PLP.ligand.clash>
0.0000

> <Gold.PLP.ligand.torsion>
0.9532

> <Gold.PLP.Chemscore.Hbond>
1.1427

> <Gold.PLP.Chemscore.CHOScore>
0.0000

> <Gold.PLP.Chemscore.Metal>
0.0000

> <Gold.Chemscore.Hbonds>
donor molecule, donor type, donor heavy atom, donor atom, acceptor molecule, acceptor atom, score
      P1  H  5505  5510       L1    17  0.75

> <Gold.PLP.Chemscore.Internal.Correction>
   9.000000E+99

