#       Name:                CT1002167954
#       Creating user name   hitesit
#       Creation time:       Sun Apr 16 02:22:02 2023


#       File generated by GOLD software.
#

@<TRIPOS>MOLECULE
CT1002167954|ligand_prepared|mol2|1|dock4
    29    30     1
SMALL
NO_CHARGES


@<TRIPOS>ATOM
      1 C1          49.2812  19.4560   9.3920 C.3            1 RES1               0.0000
      2 C2          48.2132  18.8541   8.4561 C.ar           1 RES1               0.0000
      3 C3          49.1667  18.7018  10.7136 C.2            1 RES1               0.0000
      4 C4          50.6197  19.2730   8.6852 C.2            1 RES1               0.0000
      5 C5          49.0898  20.9652   9.6696 C.3            1 RES1               0.0000
      6 C6          46.8659  19.1548   8.6325 C.ar           1 RES1               0.0000
      7 C7          48.5595  18.0004   7.4122 C.ar           1 RES1               0.0000
      8 N8          50.1417  17.7957  11.0104 N.am           1 RES1               0.0000
      9 O9          48.2147  18.8709  11.4654 O.2            1 RES1               0.0000
     10 N10         51.5395  18.4348   9.2590 N.am           1 RES1               0.0000
     11 O11         50.8798  19.8343   7.6281 O.2            1 RES1               0.0000
     12 C12         50.2564  21.6062  10.4046 C.3            1 RES1               0.0000
     13 C13         45.9000  18.6236   7.7939 C.ar           1 RES1               0.0000
     14 C14         47.5920  17.4701   6.5748 C.ar           1 RES1               0.0000
     15 C15         51.3494  17.6640  10.3734 C.2            1 RES1               0.0000
     16 C16         46.2623  17.7814   6.7643 C.ar           1 RES1               0.0000
     17 O17         52.2054  16.8930  10.7976 O.2            1 RES1               0.0000
     18 H18         48.9462  21.4845   8.7140 H              1 RES1               0.0000
     19 H19         48.1790  21.1020  10.2656 H              1 RES1               0.0000
     20 H20         46.5615  19.8138   9.4388 H              1 RES1               0.0000
     21 H21         49.5993  17.7408   7.2449 H              1 RES1               0.0000
     22 H22         49.9556  17.1567  11.7769 H              1 RES1               0.0000
     23 H23         52.4502  18.3805   8.8141 H              1 RES1               0.0000
     24 H24         50.0708  22.6648  10.5739 H              1 RES1               0.0000
     25 H25         50.4117  21.1307  11.3708 H              1 RES1               0.0000
     26 H26         51.1744  21.5110   9.8285 H              1 RES1               0.0000
     27 H27         44.8548  18.8706   7.9481 H              1 RES1               0.0000
     28 H28         47.8817  16.8072   5.7662 H              1 RES1               0.0000
     29 H29         45.5056  17.3657   6.1073 H              1 RES1               0.0000
@<TRIPOS>BOND
    1    1    2 1     
    2    1    3 1     
    3    1    4 1     
    4    1    5 1     
    5    2    6 ar    
    6    2    7 ar    
    7    3    8 1     
    8    3    9 2     
    9    4   10 1     
   10    4   11 2     
   11    5   12 1     
   12    5   18 1     
   13    5   19 1     
   14    6   13 ar    
   15    6   20 1     
   16    7   14 ar    
   17    7   21 1     
   18    8   15 1     
   19    8   22 1     
   20   10   15 1     
   21   10   23 1     
   22   12   24 1     
   23   12   25 1     
   24   12   26 1     
   25   13   16 ar    
   26   13   27 1     
   27   14   16 ar    
   28   14   28 1     
   29   15   17 2     
   30   16   29 1     
@<TRIPOS>SUBSTRUCTURE
      1 RES1           1
@<TRIPOS>SET
DONOR_HYDROGENS      STATIC     ATOMS    <user>   **** ""
2 22 23
ATOM$RED        STATIC     ATOMS    COLORGROUP SYSTEM
2 22 23
@<TRIPOS>COMMENT
> <Gold.Version>
2022.3.0

> <Gold.Id.Protein>
unknown|7chy_cavity_clean|pdb

> <Gold.Protein.RotatedTorsions>
[ 1696 1688 1689 1690 ] final -135.87 input  114.12 | X-H torsion
[ 5510 5505 5504 5501 ] final -135.56 input   60.02 | X-H torsion
[ 6840 6832 6833 6834 ] final   80.29 input   71.87 | X-H torsion
[ 1597 1590 1591 1592 ] final  -75.92 input  -92.84 | X-H torsion
[ 1613 1611 1610 1608 ] final  -80.82 input   60.03 | X-H torsion
[ 8773 1691 1690 1689 ] final  161.23 input   -0.00 | X-H torsion
[ 8800 1593 1592 1591 ] final  -74.77 input    0.00 | X-H torsion

> <Gold.Protein.ActiveResidues>
 GLY101  TYR102  ASN104  ILE106  SER241  GLN242  ALA243  MET246  PRO247  PHE249 
 GLN257  ASP258  ALA52   ASP70   PHE71   ARG108 

> <Gold.Protein.RotatedAtoms>
   47.7085   -4.7981    9.0972 H   0  0  0  0  0  0  0  0  0  0  0  0  # atno 1597 bound_to 1590
   57.2075   27.3836    7.2817 H   0  0  0  0  0  0  0  0  0  0  0  0  # atno 1613 bound_to 1611
   41.7947   -8.8962   -5.3366 H   0  0  0  0  0  0  0  0  0  0  0  0  # atno 1696 bound_to 1688
   53.0607   21.1347   11.7855 H   0  0  0  0  0  0  0  0  0  0  0  0  # atno 5510 bound_to 5505
   38.9633    6.3550   16.0450 H   0  0  0  0  0  0  0  0  0  0  0  0  # atno 6840 bound_to 6832
   42.2427  -10.3689   -6.1817 LP  0  0  0  0  0  0  0  0  0  0  0  0  # atno 8772 bound_to 1688
   40.0463  -12.4099   -7.7886 LP  0  0  0  0  0  0  0  0  0  0  0  0  # atno 8773 bound_to 1691
   41.4207  -11.4270   -8.1693 LP  0  0  0  0  0  0  0  0  0  0  0  0  # atno 8774 bound_to 1691
   54.0199   21.4839   13.0528 LP  0  0  0  0  0  0  0  0  0  0  0  0  # atno 8781 bound_to 5505
   52.3961   21.5526   13.2109 LP  0  0  0  0  0  0  0  0  0  0  0  0  # atno 8782 bound_to 5505
   48.9675   -5.9775    8.7773 LP  0  0  0  0  0  0  0  0  0  0  0  0  # atno 8799 bound_to 1590
   46.6779   -7.6908    7.4859 LP  0  0  0  0  0  0  0  0  0  0  0  0  # atno 8800 bound_to 1593
   45.4283   -6.5862    7.9531 LP  0  0  0  0  0  0  0  0  0  0  0  0  # atno 8801 bound_to 1593
   55.8666   26.9424    8.0912 LP  0  0  0  0  0  0  0  0  0  0  0  0  # atno 8808 bound_to 1611
   55.8605   26.9880    6.4589 LP  0  0  0  0  0  0  0  0  0  0  0  0  # atno 8809 bound_to 1611

> <Gold.Score>
     Fitness  S(hb_ext) S(vdw_ext)  S(hb_int)    S(int)      intcor
     25.18       1.91      17.87       0.00      -1.30      -0.76

> <Gold.Goldscore.Fitness>
25.1849

> <Gold.Goldscore.Internal.Vdw>
-1.5622

> <Gold.Goldscore.Internal.Torsion>
-0.4982

> <Gold.Goldscore.External.Vdw>
17.8704

> <Gold.Goldscore.Internal.HBond>
0.0000

> <Gold.Goldscore.External.HBond>
1.9149

> <Gold.Goldscore.Internal.Correction>
-0.7585

> <Gold.Goldscore.Hbonds>
donor molecule, donor type, donor heavy atom, donor atom, acceptor molecule, acceptor atom, score
      P1  H  5528  5533       L1    17  0.92
      L1  H    10    23       P1  1589  0.04

> <Gold.Goldscore.Internal.Vdw.Weighted>
-1.5622

> <Gold.Goldscore.Internal.Torsion.Weighted>
-0.4982

> <Gold.Goldscore.External.Vdw.Weighted>
24.5719

> <Gold.Goldscore.Internal.HBond.Weighted>
0.0000

> <Gold.Goldscore.External.HBond.Weighted>
1.9149

> <Gold.Goldscore.Internal.Correction.Weighted>
-0.7585

> <Gold.Rescore>
     Score     S(PLP)   S(hbond)     S(cho)   S(metal)  DE(clash)   DE(tors)     intcor
     16.83     -15.71       0.96       0.00       0.00       0.11       0.82       ----

> <Gold.PLP.Fitness>
16.8332

> <Gold.PLP.PLP>
-15.7091

> <Gold.PLP.part.hbond>
-1.0000

> <Gold.PLP.part.metal>
0.0000

> <Gold.PLP.part.buried>
-3.5444

> <Gold.PLP.part.nonpolar>
-15.6428

> <Gold.PLP.part.repulsive>
4.9508

> <Gold.PLP.ligand.clash>
0.1142

> <Gold.PLP.ligand.torsion>
0.8208

> <Gold.PLP.Chemscore.Hbond>
0.9600

> <Gold.PLP.Chemscore.CHOScore>
0.0000

> <Gold.PLP.Chemscore.Metal>
0.0000

> <Gold.Chemscore.Hbonds>
donor molecule, donor type, donor heavy atom, donor atom, acceptor molecule, acceptor atom, score
      P1  H  5528  5533       L1    17  1.00

> <Gold.PLP.Chemscore.Internal.Correction>
   9.000000E+99

