#       Name:                CT1002167954
#       Creating user name   hitesit
#       Creation time:       Sun Apr 16 02:22:00 2023


#       File generated by GOLD software.
#

@<TRIPOS>MOLECULE
CT1002167954|ligand_prepared|mol2|1|dock1
    29    30     1
SMALL
NO_CHARGES


@<TRIPOS>ATOM
      1 C1          52.0240  24.5374   9.7451 C.3            1 RES1               0.0000
      2 C2          51.1076  25.4949   8.9563 C.ar           1 RES1               0.0000
      3 C3          51.1680  23.9486  10.8626 C.2            1 RES1               0.0000
      4 C4          52.5306  23.5079   8.7411 C.2            1 RES1               0.0000
      5 C5          53.2523  25.2299  10.3803 C.3            1 RES1               0.0000
      6 C6          51.4055  26.8517   8.8716 C.ar           1 RES1               0.0000
      7 C7          49.9645  25.0365   8.3069 C.ar           1 RES1               0.0000
      8 N8          50.7671  22.6513  10.7346 N.am           1 RES1               0.0000
      9 O9          50.8170  24.6240  11.8221 O.2            1 RES1               0.0000
     10 N10         52.1373  22.2053   8.9034 N.am           1 RES1               0.0000
     11 O11         53.2533  23.8157   7.8013 O.2            1 RES1               0.0000
     12 C12         54.1579  24.2839  11.1531 C.3            1 RES1               0.0000
     13 C13         50.5917  27.7184   8.1611 C.ar           1 RES1               0.0000
     14 C14         49.1519  25.9050   7.5970 C.ar           1 RES1               0.0000
     15 C15         51.2538  21.7356   9.8367 C.2            1 RES1               0.0000
     16 C16         49.4647  27.2457   7.5230 C.ar           1 RES1               0.0000
     17 O17         50.9070  20.5589   9.8853 O.2            1 RES1               0.0000
     18 H18         53.8377  25.7088   9.5857 H              1 RES1               0.0000
     19 H19         52.9020  26.0169  11.0595 H              1 RES1               0.0000
     20 H20         52.2868  27.2424   9.3693 H              1 RES1               0.0000
     21 H21         49.6982  23.9860   8.3524 H              1 RES1               0.0000
     22 H22         50.0380  22.3327  11.3648 H              1 RES1               0.0000
     23 H23         52.5407  21.5224   8.2699 H              1 RES1               0.0000
     24 H24         55.0036  24.8206  11.5779 H              1 RES1               0.0000
     25 H25         53.6146  23.8088  11.9672 H              1 RES1               0.0000
     26 H26         54.5448  23.5025  10.5022 H              1 RES1               0.0000
     27 H27         50.8415  28.7728   8.1070 H              1 RES1               0.0000
     28 H28         48.2656  25.5287   7.0969 H              1 RES1               0.0000
     29 H29         48.8276  27.9247   6.9661 H              1 RES1               0.0000
@<TRIPOS>BOND
    1    1    2 1     
    2    1    3 1     
    3    1    4 1     
    4    1    5 1     
    5    2    6 ar    
    6    2    7 ar    
    7    3    8 1     
    8    3    9 2     
    9    4   10 1     
   10    4   11 2     
   11    5   12 1     
   12    5   18 1     
   13    5   19 1     
   14    6   13 ar    
   15    6   20 1     
   16    7   14 ar    
   17    7   21 1     
   18    8   15 1     
   19    8   22 1     
   20   10   15 1     
   21   10   23 1     
   22   12   24 1     
   23   12   25 1     
   24   12   26 1     
   25   13   16 ar    
   26   13   27 1     
   27   14   16 ar    
   28   14   28 1     
   29   15   17 2     
   30   16   29 1     
@<TRIPOS>SUBSTRUCTURE
      1 RES1           1
@<TRIPOS>SET
DONOR_HYDROGENS      STATIC     ATOMS    <user>   **** ""
2 22 23
ATOM$RED        STATIC     ATOMS    COLORGROUP SYSTEM
2 22 23
@<TRIPOS>COMMENT
> <Gold.Version>
2022.3.0

> <Gold.Id.Protein>
unknown|7chy_cavity_clean|pdb

> <Gold.Protein.RotatedTorsions>
[ 1696 1688 1689 1690 ] final  -38.78 input  114.12 | X-H torsion
[ 5510 5505 5504 5501 ] final   24.81 input   60.02 | X-H torsion
[ 6840 6832 6833 6834 ] final  -39.19 input   71.87 | X-H torsion
[ 1597 1590 1591 1592 ] final  -41.58 input  -92.84 | X-H torsion
[ 1613 1611 1610 1608 ] final  111.13 input   60.03 | X-H torsion
[ 8773 1691 1690 1689 ] final   37.43 input   -0.00 | X-H torsion
[ 8800 1593 1592 1591 ] final  131.98 input    0.00 | X-H torsion

> <Gold.Protein.ActiveResidues>
 GLY101  TYR102  ASN104  ILE106  SER241  GLN242  ALA243  MET246  PRO247  PHE249 
 GLN257  ASP258  ALA52   ASP70   PHE71   ARG108 

> <Gold.Protein.RotatedAtoms>
   47.4790   -5.2756    9.0967 H   0  0  0  0  0  0  0  0  0  0  0  0  # atno 1597 bound_to 1590
   55.4408   26.8254    7.4667 H   0  0  0  0  0  0  0  0  0  0  0  0  # atno 1613 bound_to 1611
   41.4238  -10.1935   -5.3738 H   0  0  0  0  0  0  0  0  0  0  0  0  # atno 1696 bound_to 1688
   52.9380   21.6404   13.5556 H   0  0  0  0  0  0  0  0  0  0  0  0  # atno 5510 bound_to 5505
   40.4324    6.1094   15.6341 H   0  0  0  0  0  0  0  0  0  0  0  0  # atno 6840 bound_to 6832
   42.5948   -9.1373   -6.1464 LP  0  0  0  0  0  0  0  0  0  0  0  0  # atno 8772 bound_to 1688
   41.3623  -11.7299   -7.4140 LP  0  0  0  0  0  0  0  0  0  0  0  0  # atno 8773 bound_to 1691
   40.1048  -12.1070   -8.5439 LP  0  0  0  0  0  0  0  0  0  0  0  0  # atno 8774 bound_to 1691
   52.4764   21.2217   12.0524 LP  0  0  0  0  0  0  0  0  0  0  0  0  # atno 8781 bound_to 5505
   54.0632   21.3056   12.4287 LP  0  0  0  0  0  0  0  0  0  0  0  0  # atno 8782 bound_to 5505
   49.1866   -5.5215    8.7778 LP  0  0  0  0  0  0  0  0  0  0  0  0  # atno 8799 bound_to 1590
   45.2665   -6.7840    7.6446 LP  0  0  0  0  0  0  0  0  0  0  0  0  # atno 8800 bound_to 1593
   46.8396   -7.4930    7.7944 LP  0  0  0  0  0  0  0  0  0  0  0  0  # atno 8801 bound_to 1593
   56.5889   27.2182    6.3826 LP  0  0  0  0  0  0  0  0  0  0  0  0  # atno 8808 bound_to 1611
   56.9178   27.2745    7.9811 LP  0  0  0  0  0  0  0  0  0  0  0  0  # atno 8809 bound_to 1611

> <Gold.Score>
     Fitness  S(hb_ext) S(vdw_ext)  S(hb_int)    S(int)      intcor
     20.60       3.45      13.02       0.00      -0.75      -0.80

> <Gold.Goldscore.Fitness>
20.5965

> <Gold.Goldscore.Internal.Vdw>
-1.1904

> <Gold.Goldscore.Internal.Torsion>
-0.3671

> <Gold.Goldscore.External.Vdw>
13.0171

> <Gold.Goldscore.Internal.HBond>
0.0000

> <Gold.Goldscore.External.HBond>
3.4522

> <Gold.Goldscore.Internal.Correction>
-0.8033

> <Gold.Goldscore.Hbonds>
donor molecule, donor type, donor heavy atom, donor atom, acceptor molecule, acceptor atom, score
      L1  H     8    22       P1  5740  0.58

> <Gold.Goldscore.Internal.Vdw.Weighted>
-1.1904

> <Gold.Goldscore.Internal.Torsion.Weighted>
-0.3671

> <Gold.Goldscore.External.Vdw.Weighted>
17.8985

> <Gold.Goldscore.Internal.HBond.Weighted>
0.0000

> <Gold.Goldscore.External.HBond.Weighted>
3.4522

> <Gold.Goldscore.Internal.Correction.Weighted>
-0.8033

> <Gold.Rescore>
     Score     S(PLP)   S(hbond)     S(cho)   S(metal)  DE(clash)   DE(tors)     intcor
     26.13     -23.36       0.93       0.00       0.00       0.00       0.01       ----

> <Gold.PLP.Fitness>
26.1257

> <Gold.PLP.PLP>
-23.3622

> <Gold.PLP.part.hbond>
-1.8161

> <Gold.PLP.part.metal>
0.0000

> <Gold.PLP.part.buried>
-3.1565

> <Gold.PLP.part.nonpolar>
-18.5831

> <Gold.PLP.part.repulsive>
0.0870

> <Gold.PLP.ligand.clash>
0.0000

> <Gold.PLP.ligand.torsion>
0.0102

> <Gold.PLP.Chemscore.Hbond>
0.9280

> <Gold.PLP.Chemscore.CHOScore>
0.0000

> <Gold.PLP.Chemscore.Metal>
0.0000

> <Gold.PLP.Chemscore.Internal.Correction>
   9.000000E+99

