#       Name:                CT1002167954
#       Creating user name   hitesit
#       Creation time:       Sun Apr 16 02:22:03 2023


#       File generated by GOLD software.
#

@<TRIPOS>MOLECULE
CT1002167954|ligand_prepared|mol2|1|dock5
    29    30     1
SMALL
NO_CHARGES


@<TRIPOS>ATOM
      1 C1          50.5247  18.3435   9.6485 C.3            1 RES1               0.0000
      2 C2          50.8726  19.8439   9.7289 C.ar           1 RES1               0.0000
      3 C3          49.7651  18.0106  10.9294 C.2            1 RES1               0.0000
      4 C4          49.7060  18.1630   8.3750 C.2            1 RES1               0.0000
      5 C5          51.7613  17.4194   9.5565 C.3            1 RES1               0.0000
      6 C6          50.3642  20.6352  10.7546 C.ar           1 RES1               0.0000
      7 C7          51.7012  20.4493   8.7879 C.ar           1 RES1               0.0000
      8 N8          48.4194  17.8121  10.8324 N.am           1 RES1               0.0000
      9 O9          50.3319  17.9619  12.0141 O.2            1 RES1               0.0000
     10 N10         48.3954  17.7837   8.5025 N.am           1 RES1               0.0000
     11 O11         50.1794  18.3620   7.2630 O.2            1 RES1               0.0000
     12 C12         51.4161  15.9471   9.3980 C.3            1 RES1               0.0000
     13 C13         50.6752  21.9823  10.8383 C.ar           1 RES1               0.0000
     14 C14         52.0109  21.7966   8.8734 C.ar           1 RES1               0.0000
     15 C15         47.7065  17.6299   9.6747 C.2            1 RES1               0.0000
     16 C16         51.4990  22.5637   9.8982 C.ar           1 RES1               0.0000
     17 O17         46.5140  17.3400   9.7074 O.2            1 RES1               0.0000
     18 H18         52.3733  17.7326   8.7017 H              1 RES1               0.0000
     19 H19         52.3642  17.5449  10.4644 H              1 RES1               0.0000
     20 H20         49.7123  20.1957  11.5022 H              1 RES1               0.0000
     21 H21         52.1145  19.8655   7.9724 H              1 RES1               0.0000
     22 H22         47.8944  17.7980  11.7011 H              1 RES1               0.0000
     23 H23         47.8863  17.5987   7.6441 H              1 RES1               0.0000
     24 H24         52.3192  15.3434   9.3384 H              1 RES1               0.0000
     25 H25         50.8286  15.5954  10.2436 H              1 RES1               0.0000
     26 H26         50.8376  15.7820   8.4914 H              1 RES1               0.0000
     27 H27         50.2687  22.5820  11.6460 H              1 RES1               0.0000
     28 H28         52.6591  22.2502   8.1309 H              1 RES1               0.0000
     29 H29         51.7429  23.6189   9.9642 H              1 RES1               0.0000
@<TRIPOS>BOND
    1    1    2 1     
    2    1    3 1     
    3    1    4 1     
    4    1    5 1     
    5    2    6 ar    
    6    2    7 ar    
    7    3    8 1     
    8    3    9 2     
    9    4   10 1     
   10    4   11 2     
   11    5   12 1     
   12    5   18 1     
   13    5   19 1     
   14    6   13 ar    
   15    6   20 1     
   16    7   14 ar    
   17    7   21 1     
   18    8   15 1     
   19    8   22 1     
   20   10   15 1     
   21   10   23 1     
   22   12   24 1     
   23   12   25 1     
   24   12   26 1     
   25   13   16 ar    
   26   13   27 1     
   27   14   16 ar    
   28   14   28 1     
   29   15   17 2     
   30   16   29 1     
@<TRIPOS>SUBSTRUCTURE
      1 RES1           1
@<TRIPOS>SET
DONOR_HYDROGENS      STATIC     ATOMS    <user>   **** ""
2 22 23
ATOM$RED        STATIC     ATOMS    COLORGROUP SYSTEM
2 22 23
@<TRIPOS>COMMENT
> <Gold.Version>
2022.3.0

> <Gold.Id.Protein>
unknown|7chy_cavity_clean|pdb

> <Gold.Protein.RotatedTorsions>
[ 1696 1688 1689 1690 ] final  -92.70 input  114.12 | X-H torsion
[ 5510 5505 5504 5501 ] final  173.73 input   60.02 | X-H torsion
[ 6840 6832 6833 6834 ] final  161.88 input   71.87 | X-H torsion
[ 1597 1590 1591 1592 ] final -121.20 input  -92.84 | X-H torsion
[ 1613 1611 1610 1608 ] final  104.37 input   60.03 | X-H torsion
[ 8773 1691 1690 1689 ] final   77.72 input   -0.00 | X-H torsion
[ 8800 1593 1592 1591 ] final   74.57 input    0.00 | X-H torsion

> <Gold.Protein.ActiveResidues>
 GLY101  TYR102  ASN104  ILE106  SER241  GLN242  ALA243  MET246  PRO247  PHE249 
 GLN257  ASP258  ALA52   ASP70   PHE71   ARG108 

> <Gold.Protein.RotatedAtoms>
   48.3277   -4.5070    9.0031 H   0  0  0  0  0  0  0  0  0  0  0  0  # atno 1597 bound_to 1590
   55.4246   26.8235    7.3575 H   0  0  0  0  0  0  0  0  0  0  0  0  # atno 1613 bound_to 1611
   41.4322   -9.4126   -5.1348 H   0  0  0  0  0  0  0  0  0  0  0  0  # atno 1696 bound_to 1688
   53.8171   21.1972   12.0439 H   0  0  0  0  0  0  0  0  0  0  0  0  # atno 5510 bound_to 5505
   39.1983    5.3888   16.6592 H   0  0  0  0  0  0  0  0  0  0  0  0  # atno 6840 bound_to 6832
   42.5869   -9.8786   -6.3732 LP  0  0  0  0  0  0  0  0  0  0  0  0  # atno 8772 bound_to 1688
   40.9505  -12.0755   -7.1554 LP  0  0  0  0  0  0  0  0  0  0  0  0  # atno 8773 bound_to 1691
   40.5166  -11.7614   -8.8025 LP  0  0  0  0  0  0  0  0  0  0  0  0  # atno 8774 bound_to 1691
   53.4074   21.6362   13.5564 LP  0  0  0  0  0  0  0  0  0  0  0  0  # atno 8781 bound_to 5505
   52.2468   21.3374   12.4471 LP  0  0  0  0  0  0  0  0  0  0  0  0  # atno 8782 bound_to 5505
   48.3761   -6.2555    8.8672 LP  0  0  0  0  0  0  0  0  0  0  0  0  # atno 8799 bound_to 1590
   45.7747   -6.5061    8.2416 LP  0  0  0  0  0  0  0  0  0  0  0  0  # atno 8800 bound_to 1593
   46.3315   -7.7708    7.1974 LP  0  0  0  0  0  0  0  0  0  0  0  0  # atno 8801 bound_to 1593
   56.6879   27.2479    6.4237 LP  0  0  0  0  0  0  0  0  0  0  0  0  # atno 8808 bound_to 1611
   56.8351   27.2466    8.0500 LP  0  0  0  0  0  0  0  0  0  0  0  0  # atno 8809 bound_to 1611

> <Gold.Score>
     Fitness  S(hb_ext) S(vdw_ext)  S(hb_int)    S(int)      intcor
     31.98       4.63      21.87       0.00      -2.72      -0.76

> <Gold.Goldscore.Fitness>
31.9773

> <Gold.Goldscore.Internal.Vdw>
-3.0954

> <Gold.Goldscore.Internal.Torsion>
-0.3827

> <Gold.Goldscore.External.Vdw>
21.8654

> <Gold.Goldscore.Internal.HBond>
0.0000

> <Gold.Goldscore.External.HBond>
4.6320

> <Gold.Goldscore.Internal.Correction>
-0.7585

> <Gold.Goldscore.Hbonds>
donor molecule, donor type, donor heavy atom, donor atom, acceptor molecule, acceptor atom, score
      P1  H  5724  5733       L1    17  1.00
      P1  H  5511  5520       L1     9  1.00
      L1  H     8    22       P1  5720  0.32

> <Gold.Goldscore.Internal.Vdw.Weighted>
-3.0954

> <Gold.Goldscore.Internal.Torsion.Weighted>
-0.3827

> <Gold.Goldscore.External.Vdw.Weighted>
30.0649

> <Gold.Goldscore.Internal.HBond.Weighted>
0.0000

> <Gold.Goldscore.External.HBond.Weighted>
4.6320

> <Gold.Goldscore.Internal.Correction.Weighted>
-0.7585

> <Gold.Rescore>
     Score     S(PLP)   S(hbond)     S(cho)   S(metal)  DE(clash)   DE(tors)     intcor
     34.57     -28.00       3.00       0.00       0.00       1.84       0.29       ----

> <Gold.PLP.Fitness>
34.5664

> <Gold.PLP.PLP>
-27.9979

> <Gold.PLP.part.hbond>
-5.0000

> <Gold.PLP.part.metal>
0.0000

> <Gold.PLP.part.buried>
-0.6587

> <Gold.PLP.part.nonpolar>
-24.1520

> <Gold.PLP.part.repulsive>
0.4259

> <Gold.PLP.ligand.clash>
1.8435

> <Gold.PLP.ligand.torsion>
0.2940

> <Gold.PLP.Chemscore.Hbond>
3.0000

> <Gold.PLP.Chemscore.CHOScore>
0.0000

> <Gold.PLP.Chemscore.Metal>
0.0000

> <Gold.Chemscore.Hbonds>
donor molecule, donor type, donor heavy atom, donor atom, acceptor molecule, acceptor atom, score
      L1  H     8    22       P1  5720  1.00
      P1  H  5724  5733       L1    17  0.98
      P1  H  5511  5520       L1     9  0.76

> <Gold.PLP.Chemscore.Internal.Correction>
   9.000000E+99

