#       Name:                CT1002167954
#       Creating user name   hitesit
#       Creation time:       Sun Apr 16 02:23:27 2023


#       File generated by GOLD software.
#

@<TRIPOS>MOLECULE
CT1002167954|ligand_prepared|mol2|1|dock4
    29    30     1
SMALL
NO_CHARGES


@<TRIPOS>ATOM
      1 C1         -41.1837   5.2188 -28.5814 C.3            1 RES1               0.0000
      2 C2         -41.4376   4.4948 -27.2434 C.ar           1 RES1               0.0000
      3 C3         -40.4064   6.4871 -28.2414 C.2            1 RES1               0.0000
      4 C4         -40.4173   4.2360 -29.4596 C.2            1 RES1               0.0000
      5 C5         -42.4762   5.6206 -29.3295 C.3            1 RES1               0.0000
      6 C6         -42.7353   4.2284 -26.8170 C.ar           1 RES1               0.0000
      7 C7         -40.3862   4.0856 -26.4275 C.ar           1 RES1               0.0000
      8 N8         -39.0787   6.5167 -28.5518 N.am           1 RES1               0.0000
      9 O9         -40.9412   7.4316 -27.6738 O.2            1 RES1               0.0000
     10 N10        -39.1287   4.5515 -29.8028 N.am           1 RES1               0.0000
     11 O11        -40.9120   3.1834 -29.8436 O.2            1 RES1               0.0000
     12 C12        -42.2251   6.3755 -30.6253 C.3            1 RES1               0.0000
     13 C13        -42.9732   3.5739 -25.6197 C.ar           1 RES1               0.0000
     14 C14        -40.6264   3.4315 -25.2305 C.ar           1 RES1               0.0000
     15 C15        -38.4144   5.6326 -29.3634 C.2            1 RES1               0.0000
     16 C16        -41.9191   3.1747 -24.8260 C.ar           1 RES1               0.0000
     17 O17        -37.2412   5.8197 -29.6727 O.2            1 RES1               0.0000
     18 H18        -43.0502   4.7133 -29.5549 H              1 RES1               0.0000
     19 H19        -43.0866   6.2478 -28.6681 H              1 RES1               0.0000
     20 H20        -43.5775   4.5372 -27.4272 H              1 RES1               0.0000
     21 H21        -39.3610   4.2780 -26.7251 H              1 RES1               0.0000
     22 H22        -38.5290   7.2654 -28.1425 H              1 RES1               0.0000
     23 H23        -38.6585   3.9221 -30.4456 H              1 RES1               0.0000
     24 H24        -43.1646   6.6332 -31.1098 H              1 RES1               0.0000
     25 H25        -41.6779   7.2965 -30.4354 H              1 RES1               0.0000
     26 H26        -41.6418   5.7711 -31.3169 H              1 RES1               0.0000
     27 H27        -43.9925   3.3754 -25.3053 H              1 RES1               0.0000
     28 H28        -39.7938   3.1197 -24.6086 H              1 RES1               0.0000
     29 H29        -42.1058   2.6617 -23.8883 H              1 RES1               0.0000
@<TRIPOS>BOND
    1    1    2 1     
    2    1    3 1     
    3    1    4 1     
    4    1    5 1     
    5    2    6 ar    
    6    2    7 ar    
    7    3    8 1     
    8    3    9 2     
    9    4   10 1     
   10    4   11 2     
   11    5   12 1     
   12    5   18 1     
   13    5   19 1     
   14    6   13 ar    
   15    6   20 1     
   16    7   14 ar    
   17    7   21 1     
   18    8   15 1     
   19    8   22 1     
   20   10   15 1     
   21   10   23 1     
   22   12   24 1     
   23   12   25 1     
   24   12   26 1     
   25   13   16 ar    
   26   13   27 1     
   27   14   16 ar    
   28   14   28 1     
   29   15   17 2     
   30   16   29 1     
@<TRIPOS>SUBSTRUCTURE
      1 RES1           1
@<TRIPOS>SET
DONOR_HYDROGENS      STATIC     ATOMS    <user>   **** ""
2 22 23
ATOM$RED        STATIC     ATOMS    COLORGROUP SYSTEM
2 22 23
@<TRIPOS>COMMENT
> <Gold.Version>
2022.3.0

> <Gold.Id.Protein>
unknown|7ta6_clean|pdb

> <Gold.Protein.RotatedTorsions>
[ 1498 1427 1428 1429 ] final    6.18 input  100.76 | X-H torsion
[ 1739 1653 1654 1655 ] final   16.66 input   85.13 | X-H torsion
[ 1831 1781 1782 1783 ] final -100.35 input   95.59 | X-H torsion
[ 1943 1869 1870 1871 ] final  -69.26 input  114.16 | X-H torsion
[ 2010 1974 1975 1976 ] final   55.39 input  -86.06 | X-H torsion
[ 2126 2040 2041 2042 ] final -107.94 input   20.42 | X-H torsion
[ 2266 2174 2175 2176 ] final -103.78 input   67.72 | X-H torsion
[ 2431 2337 2338 2339 ] final   34.26 input   82.35 | X-H torsion
[ 14714 14666 14667 14668 ] final   85.98 input  114.45 | X-H torsion
[ 14987 14930 14931 14932 ] final  143.08 input  116.70 | X-H torsion
[ 15134 15082 15083 15084 ] final -116.07 input   24.19 | X-H torsion
[ 15259 15184 15185 15186 ] final   25.28 input -115.06 | X-H torsion
[ 15367 15332 15333 15334 ] final  116.67 input  118.12 | X-H torsion
[ 15474 15420 15421 15422 ] final  115.52 input  108.08 | X-H torsion
[ 14842 14770 14771 14772 ] final   38.22 input   77.85 | X-H torsion
[ 1385 1341 1342 1343 ] final -101.29 input  112.53 | X-H torsion
[ 6678 6630 6631 6632 ] final   55.33 input   49.89 | X-H torsion
[ 15573 15534 15535 15536 ] final  -69.67 input   96.27 | X-H torsion
[ 20694 1344 1343 1342 ] final -179.48 input   -0.00 | X-H torsion
[ 20697 1430 1429 1428 ] final  -24.83 input    0.00 | X-H torsion
[ 20700 1540 1539 1538 ] final -115.44 input    0.00 | X-H torsion
[ 20703 1656 1655 1654 ] final  -66.06 input   -0.00 | X-H torsion
[ 20706 1784 1783 1782 ] final  140.42 input    0.00 | X-H torsion
[ 20709 1872 1871 1870 ] final   96.25 input    0.00 | X-H torsion
[ 20716 1977 1976 1975 ] final    2.82 input    0.00 | X-H torsion
[ 20719 2043 2042 2041 ] final   98.30 input    0.00 | X-H torsion
[ 20723 2340 2339 2338 ] final   85.35 input    0.00 | X-H torsion
[ 20725 14555 14554 14553 ] final   38.67 input   -0.00 | X-H torsion
[ 20728 14669 14668 14667 ] final  109.12 input    0.00 | X-H torsion
[ 20731 14933 14932 14931 ] final    1.32 input    0.00 | X-H torsion
[ 20734 15085 15084 15083 ] final   30.70 input   -0.00 | X-H torsion
[ 20742 14773 14772 14771 ] final  -14.86 input    0.00 | X-H torsion
[ 20747 6633 6632 6631 ] final  162.56 input   -0.00 | X-H torsion
[ 20749 15187 15186 15185 ] final  129.86 input    0.00 | X-H torsion
[ 20751 15335 15334 15333 ] final  -27.34 input    0.00 | X-H torsion

> <Gold.Protein.ActiveResidues>
 ALA18   ASN19   PRO20   GLN21   ALA22   GLU23   GLY24   GLN25   LEU26   GLN27  
 LEU63   PHE64   LYS65   ILE136  PRO139  ASP140  TYR141  LEU142  ASP143  PHE144 
 ALA145  GLU146  SER147  VAL150 

> <Gold.Protein.RotatedAtoms>
  -33.3697   10.8780  -31.7404 H   0  0  0  0  0  0  0  0  0  0  0  0  # atno 1385 bound_to 1341
  -35.5090    7.3801  -31.1933 H   0  0  0  0  0  0  0  0  0  0  0  0  # atno 1498 bound_to 1427
  -38.3059    4.0500  -33.3187 H   0  0  0  0  0  0  0  0  0  0  0  0  # atno 1739 bound_to 1653
  -38.1350    1.5471  -32.9807 H   0  0  0  0  0  0  0  0  0  0  0  0  # atno 1831 bound_to 1781
  -37.5505    1.1009  -30.0413 H   0  0  0  0  0  0  0  0  0  0  0  0  # atno 1943 bound_to 1869
  -37.8178    0.2404  -27.3670 H   0  0  0  0  0  0  0  0  0  0  0  0  # atno 2010 bound_to 1974
  -36.3576    1.2233  -25.0912 H   0  0  0  0  0  0  0  0  0  0  0  0  # atno 2126 bound_to 2040
  -34.1429    3.4553  -26.5042 H   0  0  0  0  0  0  0  0  0  0  0  0  # atno 2266 bound_to 2174
  -33.3048    5.3927  -29.1294 H   0  0  0  0  0  0  0  0  0  0  0  0  # atno 2431 bound_to 2337
  -38.2010   12.1740  -24.0174 H   0  0  0  0  0  0  0  0  0  0  0  0  # atno 6678 bound_to 6630
  -38.3839    2.5650  -19.8365 H   0  0  0  0  0  0  0  0  0  0  0  0  # atno 14714 bound_to 14666
  -39.7553    4.4545  -20.6993 H   0  0  0  0  0  0  0  0  0  0  0  0  # atno 14842 bound_to 14770
  -39.5088    5.8310  -21.8210 H   0  0  0  0  0  0  0  0  0  0  0  0  # atno 14987 bound_to 14930
  -40.8408    7.6538  -24.8950 H   0  0  0  0  0  0  0  0  0  0  0  0  # atno 15134 bound_to 15082
  -42.3303    9.6653  -27.3573 H   0  0  0  0  0  0  0  0  0  0  0  0  # atno 15259 bound_to 15184
  -41.5162    9.4674  -29.0408 H   0  0  0  0  0  0  0  0  0  0  0  0  # atno 15367 bound_to 15332
  -42.0702    9.9827  -31.6354 H   0  0  0  0  0  0  0  0  0  0  0  0  # atno 15474 bound_to 15420
  -41.7217   12.5677  -33.6026 H   0  0  0  0  0  0  0  0  0  0  0  0  # atno 15573 bound_to 15534
  -36.6364    8.5349  -33.4199 LP  0  0  0  0  0  0  0  0  0  0  0  0  # atno 20694 bound_to 1344
  -36.2903   10.0453  -32.6460 LP  0  0  0  0  0  0  0  0  0  0  0  0  # atno 20695 bound_to 1344
  -34.1542    7.6036  -32.2747 LP  0  0  0  0  0  0  0  0  0  0  0  0  # atno 20696 bound_to 1427
  -36.5015    4.8094  -31.1678 LP  0  0  0  0  0  0  0  0  0  0  0  0  # atno 20697 bound_to 1430
  -38.0990    5.4584  -31.0041 LP  0  0  0  0  0  0  0  0  0  0  0  0  # atno 20698 bound_to 1430
  -40.3248    3.4887  -31.2538 LP  0  0  0  0  0  0  0  0  0  0  0  0  # atno 20700 bound_to 1540
  -41.5908    4.4024  -32.0036 LP  0  0  0  0  0  0  0  0  0  0  0  0  # atno 20701 bound_to 1540
  -39.8922    4.4447  -33.9449 LP  0  0  0  0  0  0  0  0  0  0  0  0  # atno 20702 bound_to 1653
  -39.5722   -0.0926  -32.4342 LP  0  0  0  0  0  0  0  0  0  0  0  0  # atno 20703 bound_to 1656
  -38.1081   -0.3844  -33.3123 LP  0  0  0  0  0  0  0  0  0  0  0  0  # atno 20704 bound_to 1656
  -37.5454    3.0556  -32.3218 LP  0  0  0  0  0  0  0  0  0  0  0  0  # atno 20705 bound_to 1781
  -37.4229    2.2918  -28.4495 LP  0  0  0  0  0  0  0  0  0  0  0  0  # atno 20706 bound_to 1784
  -35.8144    1.9275  -28.9786 LP  0  0  0  0  0  0  0  0  0  0  0  0  # atno 20707 bound_to 1784
  -38.6035   -0.0907  -30.7639 LP  0  0  0  0  0  0  0  0  0  0  0  0  # atno 20708 bound_to 1869
  -36.6011   -1.2481  -28.1201 LP  0  0  0  0  0  0  0  0  0  0  0  0  # atno 20709 bound_to 1872
  -38.0067   -2.2205  -27.8398 LP  0  0  0  0  0  0  0  0  0  0  0  0  # atno 20710 bound_to 1872
  -39.1599    0.6877  -26.3370 LP  0  0  0  0  0  0  0  0  0  0  0  0  # atno 20715 bound_to 1974
  -35.7925   -0.9114  -23.6316 LP  0  0  0  0  0  0  0  0  0  0  0  0  # atno 20716 bound_to 1977
  -34.5584    0.2492  -23.9922 LP  0  0  0  0  0  0  0  0  0  0  0  0  # atno 20717 bound_to 1977
  -36.0231    0.9454  -26.7843 LP  0  0  0  0  0  0  0  0  0  0  0  0  # atno 20718 bound_to 2040
  -36.0826    4.2287  -26.7111 LP  0  0  0  0  0  0  0  0  0  0  0  0  # atno 20719 bound_to 2043
  -35.4542    3.3248  -28.0482 LP  0  0  0  0  0  0  0  0  0  0  0  0  # atno 20720 bound_to 2043
  -32.7051    3.6390  -25.5191 LP  0  0  0  0  0  0  0  0  0  0  0  0  # atno 20721 bound_to 2174
  -32.1889    4.5197  -28.1000 LP  0  0  0  0  0  0  0  0  0  0  0  0  # atno 20722 bound_to 2337
  -33.2885    7.0448  -30.7942 LP  0  0  0  0  0  0  0  0  0  0  0  0  # atno 20723 bound_to 2340
  -32.9710    6.2320  -32.2904 LP  0  0  0  0  0  0  0  0  0  0  0  0  # atno 20724 bound_to 2340
  -38.2654    3.5369  -23.6130 LP  0  0  0  0  0  0  0  0  0  0  0  0  # atno 20725 bound_to 14555
  -39.7494    3.7204  -22.7389 LP  0  0  0  0  0  0  0  0  0  0  0  0  # atno 20726 bound_to 14555
  -38.2035    2.6176  -21.5719 LP  0  0  0  0  0  0  0  0  0  0  0  0  # atno 20727 bound_to 14666
  -43.0570    2.9532  -20.6845 LP  0  0  0  0  0  0  0  0  0  0  0  0  # atno 20728 bound_to 14669
  -42.4457    2.8667  -22.3028 LP  0  0  0  0  0  0  0  0  0  0  0  0  # atno 20729 bound_to 14669
  -41.2107    6.2152  -21.9097 LP  0  0  0  0  0  0  0  0  0  0  0  0  # atno 20730 bound_to 14930
  -41.3022    5.2767  -24.3239 LP  0  0  0  0  0  0  0  0  0  0  0  0  # atno 20731 bound_to 14933
  -42.3566    6.1186  -25.4099 LP  0  0  0  0  0  0  0  0  0  0  0  0  # atno 20732 bound_to 14933
  -41.5609    9.0212  -24.0758 LP  0  0  0  0  0  0  0  0  0  0  0  0  # atno 20733 bound_to 15082
  -40.5723   10.2049  -25.9668 LP  0  0  0  0  0  0  0  0  0  0  0  0  # atno 20734 bound_to 15085
  -41.5541   11.5623  -26.4069 LP  0  0  0  0  0  0  0  0  0  0  0  0  # atno 20735 bound_to 15085
  -44.0830    9.6574  -27.2723 LP  0  0  0  0  0  0  0  0  0  0  0  0  # atno 20738 bound_to 15184
  -41.7838   11.1765  -29.2749 LP  0  0  0  0  0  0  0  0  0  0  0  0  # atno 20739 bound_to 15332
  -40.5763   10.8807  -31.7460 LP  0  0  0  0  0  0  0  0  0  0  0  0  # atno 20740 bound_to 15420
  -41.0768    3.4182  -20.2029 LP  0  0  0  0  0  0  0  0  0  0  0  0  # atno 20741 bound_to 14770
  -42.9950    7.4575  -21.1251 LP  0  0  0  0  0  0  0  0  0  0  0  0  # atno 20742 bound_to 14773
  -41.8416    8.2547  -22.1421 LP  0  0  0  0  0  0  0  0  0  0  0  0  # atno 20743 bound_to 14773
  -35.0055   11.3176  -31.3139 LP  0  0  0  0  0  0  0  0  0  0  0  0  # atno 20746 bound_to 1341
  -40.2238    9.7633  -22.6173 LP  0  0  0  0  0  0  0  0  0  0  0  0  # atno 20747 bound_to 6633
  -39.9135   10.7415  -24.0126 LP  0  0  0  0  0  0  0  0  0  0  0  0  # atno 20748 bound_to 6633
  -40.8067   12.9177  -29.6716 LP  0  0  0  0  0  0  0  0  0  0  0  0  # atno 20749 bound_to 15187
  -42.4228   13.0208  -30.2861 LP  0  0  0  0  0  0  0  0  0  0  0  0  # atno 20750 bound_to 15187
  -38.7207   12.0657  -31.7654 LP  0  0  0  0  0  0  0  0  0  0  0  0  # atno 20751 bound_to 15335
  -39.3236   11.4102  -33.2510 LP  0  0  0  0  0  0  0  0  0  0  0  0  # atno 20752 bound_to 15335

> <Gold.Score>
     Fitness  S(hb_ext) S(vdw_ext)  S(hb_int)    S(int)      intcor
     38.62       1.46      27.62       0.00      -0.83      -0.77

> <Gold.Goldscore.Fitness>
38.6157

> <Gold.Goldscore.Internal.Vdw>
-1.2208

> <Gold.Goldscore.Internal.Torsion>
-0.3742

> <Gold.Goldscore.External.Vdw>
27.6198

> <Gold.Goldscore.Internal.HBond>
0.0000

> <Gold.Goldscore.External.HBond>
1.4642

> <Gold.Goldscore.Internal.Correction>
-0.7693

> <Gold.Goldscore.Hbonds>
donor molecule, donor type, donor heavy atom, donor atom, acceptor molecule, acceptor atom, score
      P1  H 15184 15259       L1     9  0.05
      P1  H 15332 15367       L1     9  0.05
      L1  H    10    23       P1  1781  0.21

> <Gold.Goldscore.Internal.Vdw.Weighted>
-1.2208

> <Gold.Goldscore.Internal.Torsion.Weighted>
-0.3742

> <Gold.Goldscore.External.Vdw.Weighted>
37.9772

> <Gold.Goldscore.Internal.HBond.Weighted>
0.0000

> <Gold.Goldscore.External.HBond.Weighted>
1.4642

> <Gold.Goldscore.Internal.Correction.Weighted>
-0.7693

> <Gold.Rescore>
     Score     S(PLP)   S(hbond)     S(cho)   S(metal)  DE(clash)   DE(tors)     intcor
    -17.09      22.77       2.17       0.00       0.00       0.00       0.42       ----

> <Gold.PLP.Fitness>
-17.0911

> <Gold.PLP.PLP>
22.7703

> <Gold.PLP.part.hbond>
-5.0000

> <Gold.PLP.part.metal>
0.0000

> <Gold.PLP.part.buried>
44.6555

> <Gold.PLP.part.nonpolar>
-35.1686

> <Gold.PLP.part.repulsive>
16.0080

> <Gold.PLP.ligand.clash>
0.0000

> <Gold.PLP.ligand.torsion>
0.4178

> <Gold.PLP.Chemscore.Hbond>
2.1716

> <Gold.PLP.Chemscore.CHOScore>
0.0000

> <Gold.PLP.Chemscore.Metal>
0.0000

> <Gold.Chemscore.Hbonds>
donor molecule, donor type, donor heavy atom, donor atom, acceptor molecule, acceptor atom, score
      L1  H    10    23       P1  1430  0.01

> <Gold.PLP.Chemscore.Internal.Correction>
   9.000000E+99

