#       Name:                CT1002167954
#       Creating user name   hitesit
#       Creation time:       Sun Apr 16 02:23:29 2023


#       File generated by GOLD software.
#

@<TRIPOS>MOLECULE
CT1002167954|ligand_prepared|mol2|1|dock7
    29    30     1
SMALL
NO_CHARGES


@<TRIPOS>ATOM
      1 C1         -43.1743   3.5749 -25.5698 C.3            1 RES1               0.0000
      2 C2         -42.2255   4.2891 -26.5540 C.ar           1 RES1               0.0000
      3 C3         -43.9582   2.5569 -26.3928 C.2            1 RES1               0.0000
      4 C4         -42.2872   2.9557 -24.4954 C.2            1 RES1               0.0000
      5 C5         -44.1792   4.5213 -24.8727 C.3            1 RES1               0.0000
      6 C6         -40.8725   3.9660 -26.5945 C.ar           1 RES1               0.0000
      7 C7         -42.6883   5.2693 -27.4278 C.ar           1 RES1               0.0000
      8 N8         -43.6319   1.2407 -26.2470 N.am           1 RES1               0.0000
      9 O9         -44.8226   2.9067 -27.1870 O.2            1 RES1               0.0000
     10 N10        -42.2401   1.5889 -24.4108 N.am           1 RES1               0.0000
     11 O11        -41.6156   3.6390 -23.7322 O.2            1 RES1               0.0000
     12 C12        -44.9079   3.8852 -23.6994 C.3            1 RES1               0.0000
     13 C13        -40.0137   4.5979 -27.4786 C.ar           1 RES1               0.0000
     14 C14        -41.8277   5.9001 -28.3110 C.ar           1 RES1               0.0000
     15 C15        -42.8484   0.7029 -25.2578 C.2            1 RES1               0.0000
     16 C16        -40.4907   5.5649 -28.3376 C.ar           1 RES1               0.0000
     17 O17        -42.7147  -0.5127 -25.1501 O.2            1 RES1               0.0000
     18 H18        -43.6401   5.4073 -24.5151 H              1 RES1               0.0000
     19 H19        -44.9202   4.8545 -25.6098 H              1 RES1               0.0000
     20 H20        -40.4784   3.2093 -25.9244 H              1 RES1               0.0000
     21 H21        -43.7361   5.5499 -27.4237 H              1 RES1               0.0000
     22 H22        -44.0047   0.5969 -26.9375 H              1 RES1               0.0000
     23 H23        -41.7019   1.1953 -23.6454 H              1 RES1               0.0000
     24 H24        -45.6003   4.5917 -23.2465 H              1 RES1               0.0000
     25 H25        -45.4751   3.0152 -24.0235 H              1 RES1               0.0000
     26 H26        -44.2027   3.5647 -22.9353 H              1 RES1               0.0000
     27 H27        -38.9620   4.3314 -27.4947 H              1 RES1               0.0000
     28 H28        -42.2074   6.6610 -28.9848 H              1 RES1               0.0000
     29 H29        -39.8178   6.0595 -29.0303 H              1 RES1               0.0000
@<TRIPOS>BOND
    1    1    2 1     
    2    1    3 1     
    3    1    4 1     
    4    1    5 1     
    5    2    6 ar    
    6    2    7 ar    
    7    3    8 1     
    8    3    9 2     
    9    4   10 1     
   10    4   11 2     
   11    5   12 1     
   12    5   18 1     
   13    5   19 1     
   14    6   13 ar    
   15    6   20 1     
   16    7   14 ar    
   17    7   21 1     
   18    8   15 1     
   19    8   22 1     
   20   10   15 1     
   21   10   23 1     
   22   12   24 1     
   23   12   25 1     
   24   12   26 1     
   25   13   16 ar    
   26   13   27 1     
   27   14   16 ar    
   28   14   28 1     
   29   15   17 2     
   30   16   29 1     
@<TRIPOS>SUBSTRUCTURE
      1 RES1           1
@<TRIPOS>SET
DONOR_HYDROGENS      STATIC     ATOMS    <user>   **** ""
2 22 23
ATOM$RED        STATIC     ATOMS    COLORGROUP SYSTEM
2 22 23
@<TRIPOS>COMMENT
> <Gold.Version>
2022.3.0

> <Gold.Id.Protein>
unknown|7ta6_clean|pdb

> <Gold.Protein.RotatedTorsions>
[ 1498 1427 1428 1429 ] final  -65.21 input  100.76 | X-H torsion
[ 1739 1653 1654 1655 ] final  107.28 input   85.13 | X-H torsion
[ 1831 1781 1782 1783 ] final -152.60 input   95.59 | X-H torsion
[ 1943 1869 1870 1871 ] final  123.51 input  114.16 | X-H torsion
[ 2010 1974 1975 1976 ] final -177.43 input  -86.06 | X-H torsion
[ 2126 2040 2041 2042 ] final  -41.17 input   20.42 | X-H torsion
[ 2266 2174 2175 2176 ] final  174.99 input   67.72 | X-H torsion
[ 2431 2337 2338 2339 ] final   28.45 input   82.35 | X-H torsion
[ 14714 14666 14667 14668 ] final   65.43 input  114.45 | X-H torsion
[ 14987 14930 14931 14932 ] final    5.21 input  116.70 | X-H torsion
[ 15134 15082 15083 15084 ] final -134.47 input   24.19 | X-H torsion
[ 15259 15184 15185 15186 ] final   -4.52 input -115.06 | X-H torsion
[ 15367 15332 15333 15334 ] final  107.07 input  118.12 | X-H torsion
[ 15474 15420 15421 15422 ] final  -29.52 input  108.08 | X-H torsion
[ 14842 14770 14771 14772 ] final -136.46 input   77.85 | X-H torsion
[ 1385 1341 1342 1343 ] final   16.71 input  112.53 | X-H torsion
[ 6678 6630 6631 6632 ] final  -54.38 input   49.89 | X-H torsion
[ 15573 15534 15535 15536 ] final   82.30 input   96.27 | X-H torsion
[ 20694 1344 1343 1342 ] final   36.39 input   -0.00 | X-H torsion
[ 20697 1430 1429 1428 ] final  161.45 input    0.00 | X-H torsion
[ 20700 1540 1539 1538 ] final  -48.30 input    0.00 | X-H torsion
[ 20703 1656 1655 1654 ] final  162.86 input   -0.00 | X-H torsion
[ 20706 1784 1783 1782 ] final -104.39 input    0.00 | X-H torsion
[ 20709 1872 1871 1870 ] final  -40.90 input    0.00 | X-H torsion
[ 20716 1977 1976 1975 ] final  100.00 input    0.00 | X-H torsion
[ 20719 2043 2042 2041 ] final -114.20 input    0.00 | X-H torsion
[ 20723 2340 2339 2338 ] final -149.28 input    0.00 | X-H torsion
[ 20725 14555 14554 14553 ] final -121.34 input   -0.00 | X-H torsion
[ 20728 14669 14668 14667 ] final   31.83 input    0.00 | X-H torsion
[ 20731 14933 14932 14931 ] final  -24.41 input    0.00 | X-H torsion
[ 20734 15085 15084 15083 ] final  -90.13 input   -0.00 | X-H torsion
[ 20742 14773 14772 14771 ] final  -97.40 input    0.00 | X-H torsion
[ 20747 6633 6632 6631 ] final    3.28 input   -0.00 | X-H torsion
[ 20749 15187 15186 15185 ] final  102.32 input    0.00 | X-H torsion
[ 20751 15335 15334 15333 ] final -109.10 input    0.00 | X-H torsion

> <Gold.Protein.ActiveResidues>
 ALA18   ASN19   PRO20   GLN21   ALA22   GLU23   GLY24   GLN25   LEU26   GLN27  
 LEU63   PHE64   LYS65   ILE136  PRO139  ASP140  TYR141  LEU142  ASP143  PHE144 
 ALA145  GLU146  SER147  VAL150 

> <Gold.Protein.RotatedAtoms>
  -34.8218   11.0174  -32.1421 H   0  0  0  0  0  0  0  0  0  0  0  0  # atno 1385 bound_to 1341
  -35.4194    8.1271  -31.9004 H   0  0  0  0  0  0  0  0  0  0  0  0  # atno 1498 bound_to 1427
  -38.7978    4.2366  -34.4692 H   0  0  0  0  0  0  0  0  0  0  0  0  # atno 1739 bound_to 1653
  -37.5177    1.8615  -33.3405 H   0  0  0  0  0  0  0  0  0  0  0  0  # atno 1831 bound_to 1781
  -38.7225    0.0535  -30.8198 H   0  0  0  0  0  0  0  0  0  0  0  0  # atno 1943 bound_to 1869
  -39.2012   -0.0333  -26.6287 H   0  0  0  0  0  0  0  0  0  0  0  0  # atno 2010 bound_to 1974
  -36.5668    1.8674  -25.7918 H   0  0  0  0  0  0  0  0  0  0  0  0  # atno 2126 bound_to 2040
  -34.0115    3.8746  -25.4267 H   0  0  0  0  0  0  0  0  0  0  0  0  # atno 2266 bound_to 2174
  -33.2649    5.4685  -29.1006 H   0  0  0  0  0  0  0  0  0  0  0  0  # atno 2431 bound_to 2337
  -37.7253   12.4807  -22.6752 H   0  0  0  0  0  0  0  0  0  0  0  0  # atno 6678 bound_to 6630
  -38.4727    2.8608  -19.8931 H   0  0  0  0  0  0  0  0  0  0  0  0  # atno 14714 bound_to 14666
  -41.1335    3.4113  -20.2730 H   0  0  0  0  0  0  0  0  0  0  0  0  # atno 14842 bound_to 14770
  -41.0858    5.7295  -22.2880 H   0  0  0  0  0  0  0  0  0  0  0  0  # atno 14987 bound_to 14930
  -41.0273    7.5158  -24.7319 H   0  0  0  0  0  0  0  0  0  0  0  0  # atno 15134 bound_to 15082
  -42.4660    9.4238  -27.7269 H   0  0  0  0  0  0  0  0  0  0  0  0  # atno 15259 bound_to 15184
  -41.5922    9.4509  -29.1661 H   0  0  0  0  0  0  0  0  0  0  0  0  # atno 15367 bound_to 15332
  -40.9416   11.2305  -31.6059 H   0  0  0  0  0  0  0  0  0  0  0  0  # atno 15474 bound_to 15420
  -41.8497   12.7482  -31.8923 H   0  0  0  0  0  0  0  0  0  0  0  0  # atno 15573 bound_to 15534
  -35.9569    9.9921  -33.0590 LP  0  0  0  0  0  0  0  0  0  0  0  0  # atno 20694 bound_to 1344
  -36.9699    8.5881  -33.0069 LP  0  0  0  0  0  0  0  0  0  0  0  0  # atno 20695 bound_to 1344
  -34.2416    6.8750  -31.5850 LP  0  0  0  0  0  0  0  0  0  0  0  0  # atno 20696 bound_to 1427
  -38.1292    5.3821  -31.0518 LP  0  0  0  0  0  0  0  0  0  0  0  0  # atno 20697 bound_to 1430
  -36.4712    4.8858  -31.1201 LP  0  0  0  0  0  0  0  0  0  0  0  0  # atno 20698 bound_to 1430
  -40.5499    4.3855  -31.0041 LP  0  0  0  0  0  0  0  0  0  0  0  0  # atno 20700 bound_to 1540
  -41.3657    3.5057  -32.2533 LP  0  0  0  0  0  0  0  0  0  0  0  0  # atno 20701 bound_to 1540
  -39.4163    4.2641  -32.8319 LP  0  0  0  0  0  0  0  0  0  0  0  0  # atno 20702 bound_to 1653
  -38.0272   -0.3593  -32.6002 LP  0  0  0  0  0  0  0  0  0  0  0  0  # atno 20703 bound_to 1656
  -39.6531   -0.1177  -33.1464 LP  0  0  0  0  0  0  0  0  0  0  0  0  # atno 20704 bound_to 1656
  -38.1459    2.7499  -31.9718 LP  0  0  0  0  0  0  0  0  0  0  0  0  # atno 20705 bound_to 1781
  -36.2853    1.3743  -28.4007 LP  0  0  0  0  0  0  0  0  0  0  0  0  # atno 20706 bound_to 1784
  -36.9520    2.8449  -29.0274 LP  0  0  0  0  0  0  0  0  0  0  0  0  # atno 20707 bound_to 1784
  -37.4558    0.9350  -30.0015 LP  0  0  0  0  0  0  0  0  0  0  0  0  # atno 20708 bound_to 1869
  -37.9613   -2.0497  -28.4473 LP  0  0  0  0  0  0  0  0  0  0  0  0  # atno 20709 bound_to 1872
  -36.6466   -1.4188  -27.5127 LP  0  0  0  0  0  0  0  0  0  0  0  0  # atno 20710 bound_to 1872
  -37.8193    0.9530  -27.0524 LP  0  0  0  0  0  0  0  0  0  0  0  0  # atno 20715 bound_to 1974
  -34.7410   -0.8105  -24.3876 LP  0  0  0  0  0  0  0  0  0  0  0  0  # atno 20716 bound_to 1977
  -35.6098    0.1483  -23.2361 LP  0  0  0  0  0  0  0  0  0  0  0  0  # atno 20717 bound_to 1977
  -35.8192    0.3179  -26.1017 LP  0  0  0  0  0  0  0  0  0  0  0  0  # atno 20718 bound_to 2040
  -35.2598    3.7675  -28.0805 LP  0  0  0  0  0  0  0  0  0  0  0  0  # atno 20719 bound_to 2043
  -36.2771    3.7859  -26.6788 LP  0  0  0  0  0  0  0  0  0  0  0  0  # atno 20720 bound_to 2043
  -32.8313    3.2362  -26.5542 LP  0  0  0  0  0  0  0  0  0  0  0  0  # atno 20721 bound_to 2174
  -32.2274    4.4466  -28.1278 LP  0  0  0  0  0  0  0  0  0  0  0  0  # atno 20722 bound_to 2337
  -32.7394    6.9901  -32.2307 LP  0  0  0  0  0  0  0  0  0  0  0  0  # atno 20723 bound_to 2340
  -33.5202    6.2867  -30.8539 LP  0  0  0  0  0  0  0  0  0  0  0  0  # atno 20724 bound_to 2340
  -39.6411    4.0001  -22.7172 LP  0  0  0  0  0  0  0  0  0  0  0  0  # atno 20725 bound_to 14555
  -38.3737    3.2573  -23.6347 LP  0  0  0  0  0  0  0  0  0  0  0  0  # atno 20726 bound_to 14555
  -38.1162    2.3267  -21.5163 LP  0  0  0  0  0  0  0  0  0  0  0  0  # atno 20727 bound_to 14666
  -42.7225    2.0841  -21.2347 LP  0  0  0  0  0  0  0  0  0  0  0  0  # atno 20728 bound_to 14669
  -42.7802    3.7359  -21.7526 LP  0  0  0  0  0  0  0  0  0  0  0  0  # atno 20729 bound_to 14669
  -39.6674    6.3146  -21.4527 LP  0  0  0  0  0  0  0  0  0  0  0  0  # atno 20730 bound_to 14930
  -41.0967    5.2903  -24.6499 LP  0  0  0  0  0  0  0  0  0  0  0  0  # atno 20731 bound_to 14933
  -42.5622    6.1051  -25.0839 LP  0  0  0  0  0  0  0  0  0  0  0  0  # atno 20732 bound_to 14933
  -41.3797    9.1553  -24.2342 LP  0  0  0  0  0  0  0  0  0  0  0  0  # atno 20733 bound_to 15082
  -41.5753   11.2684  -25.6040 LP  0  0  0  0  0  0  0  0  0  0  0  0  # atno 20734 bound_to 15085
  -40.5511   10.4988  -26.7696 LP  0  0  0  0  0  0  0  0  0  0  0  0  # atno 20735 bound_to 15085
  -43.9538    9.8875  -26.9202 LP  0  0  0  0  0  0  0  0  0  0  0  0  # atno 20738 bound_to 15184
  -41.7092   11.1926  -29.1519 LP  0  0  0  0  0  0  0  0  0  0  0  0  # atno 20739 bound_to 15332
  -41.6822    9.6579  -31.7749 LP  0  0  0  0  0  0  0  0  0  0  0  0  # atno 20740 bound_to 15420
  -39.7469    4.4249  -20.6143 LP  0  0  0  0  0  0  0  0  0  0  0  0  # atno 20741 bound_to 14770
  -42.8409    7.4283  -22.2568 LP  0  0  0  0  0  0  0  0  0  0  0  0  # atno 20742 bound_to 14773
  -41.9956    8.2839  -21.0105 LP  0  0  0  0  0  0  0  0  0  0  0  0  # atno 20743 bound_to 14773
  -33.5839   11.1812  -30.9207 LP  0  0  0  0  0  0  0  0  0  0  0  0  # atno 20746 bound_to 1341
  -39.6247   10.7114  -23.8999 LP  0  0  0  0  0  0  0  0  0  0  0  0  # atno 20747 bound_to 6633
  -40.5125    9.7933  -22.7300 LP  0  0  0  0  0  0  0  0  0  0  0  0  # atno 20748 bound_to 6633
  -41.0133   13.1119  -29.3723 LP  0  0  0  0  0  0  0  0  0  0  0  0  # atno 20749 bound_to 15187
  -42.2162   12.8267  -30.5854 LP  0  0  0  0  0  0  0  0  0  0  0  0  # atno 20750 bound_to 15187
  -39.5136   12.4504  -32.4783 LP  0  0  0  0  0  0  0  0  0  0  0  0  # atno 20751 bound_to 15335
  -38.5307   11.0255  -32.5381 LP  0  0  0  0  0  0  0  0  0  0  0  0  # atno 20752 bound_to 15335

> <Gold.Score>
     Fitness  S(hb_ext) S(vdw_ext)  S(hb_int)    S(int)      intcor
     30.59       0.00      23.36       0.00      -1.52      -0.77

> <Gold.Goldscore.Fitness>
30.5929

> <Gold.Goldscore.Internal.Vdw>
-1.6880

> <Gold.Goldscore.Internal.Torsion>
-0.5984

> <Gold.Goldscore.External.Vdw>
23.3556

> <Gold.Goldscore.Internal.HBond>
0.0000

> <Gold.Goldscore.External.HBond>
0.0000

> <Gold.Goldscore.Internal.Correction>
-0.7653

> <Gold.Goldscore.Internal.Vdw.Weighted>
-1.6880

> <Gold.Goldscore.Internal.Torsion.Weighted>
-0.5984

> <Gold.Goldscore.External.Vdw.Weighted>
32.1140

> <Gold.Goldscore.Internal.HBond.Weighted>
0.0000

> <Gold.Goldscore.External.HBond.Weighted>
0.0000

> <Gold.Goldscore.Internal.Correction.Weighted>
-0.7653

> <Gold.Rescore>
     Score     S(PLP)   S(hbond)     S(cho)   S(metal)  DE(clash)   DE(tors)     intcor
      9.05      -8.63       0.99       0.00       0.00       1.78       0.38       ----

> <Gold.PLP.Fitness>
9.0549

> <Gold.PLP.PLP>
-8.6315

> <Gold.PLP.part.hbond>
-0.9627

> <Gold.PLP.part.metal>
0.0000

> <Gold.PLP.part.buried>
5.4466

> <Gold.PLP.part.nonpolar>
-19.4950

> <Gold.PLP.part.repulsive>
4.4112

> <Gold.PLP.ligand.clash>
1.7837

> <Gold.PLP.ligand.torsion>
0.3833

> <Gold.PLP.Chemscore.Hbond>
0.9913

> <Gold.PLP.Chemscore.CHOScore>
0.0000

> <Gold.PLP.Chemscore.Metal>
0.0000

> <Gold.PLP.Chemscore.Internal.Correction>
   9.000000E+99

