#       Name:                CT1002167954
#       Creating user name   hitesit
#       Creation time:       Sun Apr 16 02:23:25 2023


#       File generated by GOLD software.
#

@<TRIPOS>MOLECULE
CT1002167954|ligand_prepared|mol2|1|dock1
    29    30     1
SMALL
NO_CHARGES


@<TRIPOS>ATOM
      1 C1         -44.6558   3.9740 -24.3712 C.3            1 RES1               0.0000
      2 C2         -43.2595   3.9154 -25.0237 C.ar           1 RES1               0.0000
      3 C3         -45.1798   2.5410 -24.3512 C.2            1 RES1               0.0000
      4 C4         -44.4550   4.5824 -22.9877 C.2            1 RES1               0.0000
      5 C5         -45.6677   4.8562 -25.1389 C.3            1 RES1               0.0000
      6 C6         -43.0369   4.4854 -26.2736 C.ar           1 RES1               0.0000
      7 C7         -42.1855   3.2982 -24.3879 C.ar           1 RES1               0.0000
      8 N8         -45.2005   1.8926 -23.1515 N.am           1 RES1               0.0000
      9 O9         -45.5322   1.9751 -25.3786 O.2            1 RES1               0.0000
     10 N10        -44.7049   3.7923 -21.8964 N.am           1 RES1               0.0000
     11 O11        -44.0666   5.7337 -22.8329 O.2            1 RES1               0.0000
     12 C12        -47.0028   5.0172 -24.4292 C.3            1 RES1               0.0000
     13 C13        -41.7854   4.4427 -26.8653 C.ar           1 RES1               0.0000
     14 C14        -40.9347   3.2565 -24.9815 C.ar           1 RES1               0.0000
     15 C15        -45.0390   2.4656 -21.9157 C.2            1 RES1               0.0000
     16 C16        -40.7334   3.8287 -26.2195 C.ar           1 RES1               0.0000
     17 O17        -45.1944   1.8081 -20.8906 O.2            1 RES1               0.0000
     18 H18        -45.2265   5.8491 -25.2907 H              1 RES1               0.0000
     19 H19        -45.8441   4.4132 -26.1268 H              1 RES1               0.0000
     20 H20        -43.8533   4.9708 -26.7980 H              1 RES1               0.0000
     21 H21        -42.3208   2.8405 -23.4139 H              1 RES1               0.0000
     22 H22        -45.3499   0.8889 -23.1756 H              1 RES1               0.0000
     23 H23        -44.6357   4.2342 -20.9852 H              1 RES1               0.0000
     24 H24        -47.6753   5.6448 -25.0102 H              1 RES1               0.0000
     25 H25        -47.4815   4.0510 -24.2842 H              1 RES1               0.0000
     26 H26        -46.8676   5.4783 -23.4530 H              1 RES1               0.0000
     27 H27        -41.6325   4.8934 -27.8404 H              1 RES1               0.0000
     28 H28        -40.1098   2.7716 -24.4699 H              1 RES1               0.0000
     29 H29        -39.7530   3.7957 -26.6830 H              1 RES1               0.0000
@<TRIPOS>BOND
    1    1    2 1     
    2    1    3 1     
    3    1    4 1     
    4    1    5 1     
    5    2    6 ar    
    6    2    7 ar    
    7    3    8 1     
    8    3    9 2     
    9    4   10 1     
   10    4   11 2     
   11    5   12 1     
   12    5   18 1     
   13    5   19 1     
   14    6   13 ar    
   15    6   20 1     
   16    7   14 ar    
   17    7   21 1     
   18    8   15 1     
   19    8   22 1     
   20   10   15 1     
   21   10   23 1     
   22   12   24 1     
   23   12   25 1     
   24   12   26 1     
   25   13   16 ar    
   26   13   27 1     
   27   14   16 ar    
   28   14   28 1     
   29   15   17 2     
   30   16   29 1     
@<TRIPOS>SUBSTRUCTURE
      1 RES1           1
@<TRIPOS>SET
DONOR_HYDROGENS      STATIC     ATOMS    <user>   **** ""
2 22 23
ATOM$RED        STATIC     ATOMS    COLORGROUP SYSTEM
2 22 23
@<TRIPOS>COMMENT
> <Gold.Version>
2022.3.0

> <Gold.Id.Protein>
unknown|7ta6_clean|pdb

> <Gold.Protein.RotatedTorsions>
[ 1498 1427 1428 1429 ] final   26.29 input  100.76 | X-H torsion
[ 1739 1653 1654 1655 ] final   84.14 input   85.13 | X-H torsion
[ 1831 1781 1782 1783 ] final -137.33 input   95.59 | X-H torsion
[ 1943 1869 1870 1871 ] final   30.34 input  114.16 | X-H torsion
[ 2010 1974 1975 1976 ] final  -47.15 input  -86.06 | X-H torsion
[ 2126 2040 2041 2042 ] final  153.62 input   20.42 | X-H torsion
[ 2266 2174 2175 2176 ] final -125.74 input   67.72 | X-H torsion
[ 2431 2337 2338 2339 ] final -131.66 input   82.35 | X-H torsion
[ 14714 14666 14667 14668 ] final  -65.01 input  114.45 | X-H torsion
[ 14987 14930 14931 14932 ] final   62.03 input  116.70 | X-H torsion
[ 15134 15082 15083 15084 ] final   -8.38 input   24.19 | X-H torsion
[ 15259 15184 15185 15186 ] final -157.14 input -115.06 | X-H torsion
[ 15367 15332 15333 15334 ] final  110.62 input  118.12 | X-H torsion
[ 15474 15420 15421 15422 ] final  -16.56 input  108.08 | X-H torsion
[ 14842 14770 14771 14772 ] final -105.80 input   77.85 | X-H torsion
[ 1385 1341 1342 1343 ] final   49.90 input  112.53 | X-H torsion
[ 6678 6630 6631 6632 ] final  150.18 input   49.89 | X-H torsion
[ 15573 15534 15535 15536 ] final  172.42 input   96.27 | X-H torsion
[ 20694 1344 1343 1342 ] final -122.99 input   -0.00 | X-H torsion
[ 20697 1430 1429 1428 ] final -149.75 input    0.00 | X-H torsion
[ 20700 1540 1539 1538 ] final   66.30 input    0.00 | X-H torsion
[ 20703 1656 1655 1654 ] final   69.67 input   -0.00 | X-H torsion
[ 20706 1784 1783 1782 ] final   54.18 input    0.00 | X-H torsion
[ 20709 1872 1871 1870 ] final  131.27 input    0.00 | X-H torsion
[ 20716 1977 1976 1975 ] final -176.80 input    0.00 | X-H torsion
[ 20719 2043 2042 2041 ] final -151.55 input    0.00 | X-H torsion
[ 20723 2340 2339 2338 ] final  -81.83 input    0.00 | X-H torsion
[ 20725 14555 14554 14553 ] final   55.49 input   -0.00 | X-H torsion
[ 20728 14669 14668 14667 ] final  -92.46 input    0.00 | X-H torsion
[ 20731 14933 14932 14931 ] final   56.67 input    0.00 | X-H torsion
[ 20734 15085 15084 15083 ] final -121.31 input   -0.00 | X-H torsion
[ 20742 14773 14772 14771 ] final   19.90 input    0.00 | X-H torsion
[ 20747 6633 6632 6631 ] final -125.30 input   -0.00 | X-H torsion
[ 20749 15187 15186 15185 ] final  115.99 input    0.00 | X-H torsion
[ 20751 15335 15334 15333 ] final  -17.38 input    0.00 | X-H torsion

> <Gold.Protein.ActiveResidues>
 ALA18   ASN19   PRO20   GLN21   ALA22   GLU23   GLY24   GLN25   LEU26   GLN27  
 LEU63   PHE64   LYS65   ILE136  PRO139  ASP140  TYR141  LEU142  ASP143  PHE144 
 ALA145  GLU146  SER147  VAL150 

> <Gold.Protein.RotatedAtoms>
  -35.0505   11.1913  -31.7277 H   0  0  0  0  0  0  0  0  0  0  0  0  # atno 1385 bound_to 1341
  -35.3309    7.1432  -31.1063 H   0  0  0  0  0  0  0  0  0  0  0  0  # atno 1498 bound_to 1427
  -38.5042    4.1620  -34.2805 H   0  0  0  0  0  0  0  0  0  0  0  0  # atno 1739 bound_to 1653
  -37.6938    1.7148  -33.2862 H   0  0  0  0  0  0  0  0  0  0  0  0  # atno 1831 bound_to 1781
  -37.6361   -0.2347  -30.2029 H   0  0  0  0  0  0  0  0  0  0  0  0  # atno 1943 bound_to 1869
  -38.2778    1.2879  -26.5837 H   0  0  0  0  0  0  0  0  0  0  0  0  # atno 2010 bound_to 1974
  -35.8192    0.2807  -25.8785 H   0  0  0  0  0  0  0  0  0  0  0  0  # atno 2126 bound_to 2040
  -34.2756    3.5871  -26.2197 H   0  0  0  0  0  0  0  0  0  0  0  0  # atno 2266 bound_to 2174
  -32.0806    4.7035  -28.0538 H   0  0  0  0  0  0  0  0  0  0  0  0  # atno 2431 bound_to 2337
  -38.0722   13.4788  -24.0585 H   0  0  0  0  0  0  0  0  0  0  0  0  # atno 6678 bound_to 6630
  -38.3399    3.0223  -21.4774 H   0  0  0  0  0  0  0  0  0  0  0  0  # atno 14714 bound_to 14666
  -41.1211    3.4516  -20.7423 H   0  0  0  0  0  0  0  0  0  0  0  0  # atno 14842 bound_to 14770
  -40.3519    5.3459  -22.4295 H   0  0  0  0  0  0  0  0  0  0  0  0  # atno 14987 bound_to 14930
  -40.8173    9.0825  -24.7890 H   0  0  0  0  0  0  0  0  0  0  0  0  # atno 15134 bound_to 15082
  -44.1236    9.7172  -27.2641 H   0  0  0  0  0  0  0  0  0  0  0  0  # atno 15259 bound_to 15184
  -41.5637    9.4542  -29.1195 H   0  0  0  0  0  0  0  0  0  0  0  0  # atno 15367 bound_to 15332
  -41.1265   11.2875  -31.5585 H   0  0  0  0  0  0  0  0  0  0  0  0  # atno 15474 bound_to 15420
  -42.8683   12.5399  -32.6009 H   0  0  0  0  0  0  0  0  0  0  0  0  # atno 15573 bound_to 15534
  -37.0800    8.7450  -32.7634 LP  0  0  0  0  0  0  0  0  0  0  0  0  # atno 20694 bound_to 1344
  -35.8467    9.8351  -33.3025 LP  0  0  0  0  0  0  0  0  0  0  0  0  # atno 20695 bound_to 1344
  -34.3279    7.8347  -32.3595 LP  0  0  0  0  0  0  0  0  0  0  0  0  # atno 20696 bound_to 1427
  -38.0199    4.7626  -31.3927 LP  0  0  0  0  0  0  0  0  0  0  0  0  # atno 20697 bound_to 1430
  -36.5805    5.5053  -30.7792 LP  0  0  0  0  0  0  0  0  0  0  0  0  # atno 20698 bound_to 1430
  -41.5958    4.3819  -32.0192 LP  0  0  0  0  0  0  0  0  0  0  0  0  # atno 20700 bound_to 1540
  -40.3197    3.5093  -31.2382 LP  0  0  0  0  0  0  0  0  0  0  0  0  # atno 20701 bound_to 1540
  -39.7004    4.3363  -33.0144 LP  0  0  0  0  0  0  0  0  0  0  0  0  # atno 20702 bound_to 1653
  -38.6232   -0.3199  -33.7077 LP  0  0  0  0  0  0  0  0  0  0  0  0  # atno 20703 bound_to 1656
  -39.0571   -0.1570  -32.0388 LP  0  0  0  0  0  0  0  0  0  0  0  0  # atno 20704 bound_to 1656
  -37.9746    2.8925  -32.0247 LP  0  0  0  0  0  0  0  0  0  0  0  0  # atno 20705 bound_to 1781
  -36.6616    2.8469  -29.1664 LP  0  0  0  0  0  0  0  0  0  0  0  0  # atno 20706 bound_to 1784
  -36.5758    1.3724  -28.2617 LP  0  0  0  0  0  0  0  0  0  0  0  0  # atno 20707 bound_to 1784
  -38.5197    1.2173  -30.6057 LP  0  0  0  0  0  0  0  0  0  0  0  0  # atno 20708 bound_to 1869
  -36.6084   -1.3707  -27.6138 LP  0  0  0  0  0  0  0  0  0  0  0  0  # atno 20709 bound_to 1872
  -37.9994   -2.0979  -28.3462 LP  0  0  0  0  0  0  0  0  0  0  0  0  # atno 20710 bound_to 1872
  -38.7141   -0.3274  -27.0960 LP  0  0  0  0  0  0  0  0  0  0  0  0  # atno 20715 bound_to 1974
  -34.5608    0.2529  -23.9884 LP  0  0  0  0  0  0  0  0  0  0  0  0  # atno 20716 bound_to 1977
  -35.7901   -0.9151  -23.6353 LP  0  0  0  0  0  0  0  0  0  0  0  0  # atno 20717 bound_to 1977
  -36.5476    1.8638  -26.0173 LP  0  0  0  0  0  0  0  0  0  0  0  0  # atno 20718 bound_to 2040
  -35.2344    4.2710  -27.8493 LP  0  0  0  0  0  0  0  0  0  0  0  0  # atno 20719 bound_to 2043
  -36.3024    3.2824  -26.9100 LP  0  0  0  0  0  0  0  0  0  0  0  0  # atno 20720 bound_to 2043
  -32.5776    3.5125  -25.7924 LP  0  0  0  0  0  0  0  0  0  0  0  0  # atno 20721 bound_to 2174
  -33.3696    5.1843  -29.1375 LP  0  0  0  0  0  0  0  0  0  0  0  0  # atno 20722 bound_to 2337
  -33.0562    6.0826  -32.2023 LP  0  0  0  0  0  0  0  0  0  0  0  0  # atno 20723 bound_to 2340
  -33.2034    7.1942  -30.8823 LP  0  0  0  0  0  0  0  0  0  0  0  0  # atno 20724 bound_to 2340
  -38.3510    3.2994  -23.6350 LP  0  0  0  0  0  0  0  0  0  0  0  0  # atno 20725 bound_to 14555
  -39.6639    3.9579  -22.7170 LP  0  0  0  0  0  0  0  0  0  0  0  0  # atno 20726 bound_to 14555
  -38.2467    2.1678  -19.9582 LP  0  0  0  0  0  0  0  0  0  0  0  0  # atno 20727 bound_to 14666
  -42.5034    3.1847  -22.2766 LP  0  0  0  0  0  0  0  0  0  0  0  0  # atno 20728 bound_to 14669
  -42.9994    2.6352  -20.7107 LP  0  0  0  0  0  0  0  0  0  0  0  0  # atno 20729 bound_to 14669
  -40.3856    6.6900  -21.3142 LP  0  0  0  0  0  0  0  0  0  0  0  0  # atno 20730 bound_to 14930
  -42.0184    5.5117  -24.0424 LP  0  0  0  0  0  0  0  0  0  0  0  0  # atno 20731 bound_to 14933
  -41.6405    5.8836  -25.6913 LP  0  0  0  0  0  0  0  0  0  0  0  0  # atno 20732 bound_to 14933
  -41.5837    7.6334  -24.1787 LP  0  0  0  0  0  0  0  0  0  0  0  0  # atno 20733 bound_to 15082
  -41.6391   11.5031  -26.0010 LP  0  0  0  0  0  0  0  0  0  0  0  0  # atno 20734 bound_to 15085
  -40.4873   10.2641  -26.3726 LP  0  0  0  0  0  0  0  0  0  0  0  0  # atno 20735 bound_to 15085
  -42.3749    9.6080  -27.3610 LP  0  0  0  0  0  0  0  0  0  0  0  0  # atno 20738 bound_to 15184
  -41.7371   11.1895  -29.1976 LP  0  0  0  0  0  0  0  0  0  0  0  0  # atno 20739 bound_to 15332
  -41.5011    9.6021  -31.8214 LP  0  0  0  0  0  0  0  0  0  0  0  0  # atno 20740 bound_to 15420
  -39.7588    4.3861  -20.1614 LP  0  0  0  0  0  0  0  0  0  0  0  0  # atno 20741 bound_to 14770
  -42.6921    7.7449  -20.8196 LP  0  0  0  0  0  0  0  0  0  0  0  0  # atno 20742 bound_to 14773
  -42.1444    7.9674  -22.4476 LP  0  0  0  0  0  0  0  0  0  0  0  0  # atno 20743 bound_to 14773
  -33.3601   11.0109  -31.3264 LP  0  0  0  0  0  0  0  0  0  0  0  0  # atno 20746 bound_to 1341
  -40.9202   10.0980  -23.2827 LP  0  0  0  0  0  0  0  0  0  0  0  0  # atno 20747 bound_to 6633
  -39.2171   10.4067  -23.3472 LP  0  0  0  0  0  0  0  0  0  0  0  0  # atno 20748 bound_to 6633
  -40.8899   13.0169  -29.5073 LP  0  0  0  0  0  0  0  0  0  0  0  0  # atno 20749 bound_to 15187
  -42.3396   12.9216  -30.4504 LP  0  0  0  0  0  0  0  0  0  0  0  0  # atno 20750 bound_to 15187
  -38.6318   11.9445  -31.7632 LP  0  0  0  0  0  0  0  0  0  0  0  0  # atno 20751 bound_to 15335
  -39.4125   11.5315  -33.2531 LP  0  0  0  0  0  0  0  0  0  0  0  0  # atno 20752 bound_to 15335

> <Gold.Score>
     Fitness  S(hb_ext) S(vdw_ext)  S(hb_int)    S(int)      intcor
     32.12       0.00      23.86       0.00      -0.69      -0.79

> <Gold.Goldscore.Fitness>
32.1218

> <Gold.Goldscore.Internal.Vdw>
-1.0680

> <Gold.Goldscore.Internal.Torsion>
-0.4102

> <Gold.Goldscore.External.Vdw>
23.8611

> <Gold.Goldscore.Internal.HBond>
0.0000

> <Gold.Goldscore.External.HBond>
0.0000

> <Gold.Goldscore.Internal.Correction>
-0.7909

> <Gold.Goldscore.Internal.Vdw.Weighted>
-1.0680

> <Gold.Goldscore.Internal.Torsion.Weighted>
-0.4102

> <Gold.Goldscore.External.Vdw.Weighted>
32.8090

> <Gold.Goldscore.Internal.HBond.Weighted>
0.0000

> <Gold.Goldscore.External.HBond.Weighted>
0.0000

> <Gold.Goldscore.Internal.Correction.Weighted>
-0.7909

> <Gold.Rescore>
     Score     S(PLP)   S(hbond)     S(cho)   S(metal)  DE(clash)   DE(tors)     intcor
      4.45      -4.77       0.00       0.00       0.00       0.00       0.16       ----

> <Gold.PLP.Fitness>
4.4503

> <Gold.PLP.PLP>
-4.7733

> <Gold.PLP.part.hbond>
-0.0774

> <Gold.PLP.part.metal>
0.0000

> <Gold.PLP.part.buried>
16.5759

> <Gold.PLP.part.nonpolar>
-22.3707

> <Gold.PLP.part.repulsive>
0.6066

> <Gold.PLP.ligand.clash>
0.0000

> <Gold.PLP.ligand.torsion>
0.1615

> <Gold.PLP.Chemscore.Hbond>
0.0000

> <Gold.PLP.Chemscore.CHOScore>
0.0000

> <Gold.PLP.Chemscore.Metal>
0.0000

> <Gold.PLP.Chemscore.Internal.Correction>
   9.000000E+99

