#       Name:                CT1002167954
#       Creating user name   hitesit
#       Creation time:       Sun Apr 16 20:20:14 2023


#       File generated by GOLD software.
#

@<TRIPOS>MOLECULE
CT1002167954|ligand_prepared|mol2|1|dock6
    29    30     1
SMALL
NO_CHARGES


@<TRIPOS>ATOM
      1 C1         211.4875  48.9789  67.9957 C.3            1 RES1               0.0000
      2 C2         210.3492  48.4990  68.9192 C.ar           1 RES1               0.0000
      3 C3         212.7858  48.4723  68.6170 C.2            1 RES1               0.0000
      4 C4         211.1905  48.4005  66.6166 C.2            1 RES1               0.0000
      5 C5         211.5754  50.5169  67.8599 C.3            1 RES1               0.0000
      6 C6         209.7492  47.2594  68.7189 C.ar           1 RES1               0.0000
      7 C7         209.8911  49.2821  69.9753 C.ar           1 RES1               0.0000
      8 N8         213.4118  47.4256  68.0068 N.am           1 RES1               0.0000
      9 O9         213.2325  48.9579  69.6489 O.2            1 RES1               0.0000
     10 N10        212.0612  47.4723  66.1085 N.am           1 RES1               0.0000
     11 O11        210.2014  48.7277  65.9725 O.2            1 RES1               0.0000
     12 C12        212.5210  50.9826  66.7639 C.3            1 RES1               0.0000
     13 C13        208.7302  46.8173  69.5462 C.ar           1 RES1               0.0000
     14 C14        208.8717  48.8382  70.8013 C.ar           1 RES1               0.0000
     15 C15        213.1418  46.9359  66.7542 C.2            1 RES1               0.0000
     16 C16        208.2910  47.6061  70.5881 C.ar           1 RES1               0.0000
     17 O17        213.8462  46.0647  66.2523 O.2            1 RES1               0.0000
     18 H18        210.5729  50.9109  67.6522 H              1 RES1               0.0000
     19 H19        211.9094  50.9374  68.8165 H              1 RES1               0.0000
     20 H20        210.0799  46.6259  67.9026 H              1 RES1               0.0000
     21 H21        210.3324  50.2554  70.1613 H              1 RES1               0.0000
     22 H22        214.1489  46.9641  68.5303 H              1 RES1               0.0000
     23 H23        211.8879  47.1517  65.1612 H              1 RES1               0.0000
     24 H24        212.5453  52.0690  66.7113 H              1 RES1               0.0000
     25 H25        213.5329  50.6297  66.9518 H              1 RES1               0.0000
     26 H26        212.2043  50.6034  65.7945 H              1 RES1               0.0000
     27 H27        208.2756  45.8474  69.3733 H              1 RES1               0.0000
     28 H28        208.5288  49.4626  71.6197 H              1 RES1               0.0000
     29 H29        207.4930  47.2594  71.2363 H              1 RES1               0.0000
@<TRIPOS>BOND
    1    1    2 1     
    2    1    3 1     
    3    1    4 1     
    4    1    5 1     
    5    2    6 ar    
    6    2    7 ar    
    7    3    8 1     
    8    3    9 2     
    9    4   10 1     
   10    4   11 2     
   11    5   12 1     
   12    5   18 1     
   13    5   19 1     
   14    6   13 ar    
   15    6   20 1     
   16    7   14 ar    
   17    7   21 1     
   18    8   15 1     
   19    8   22 1     
   20   10   15 1     
   21   10   23 1     
   22   12   24 1     
   23   12   25 1     
   24   12   26 1     
   25   13   16 ar    
   26   13   27 1     
   27   14   16 ar    
   28   14   28 1     
   29   15   17 2     
   30   16   29 1     
@<TRIPOS>SUBSTRUCTURE
      1 RES1           1
@<TRIPOS>SET
DONOR_HYDROGENS      STATIC     ATOMS    <user>   **** ""
2 22 23
ATOM$RED        STATIC     ATOMS    COLORGROUP SYSTEM
2 22 23
@<TRIPOS>COMMENT
> <Gold.Version>
2022.3.0

> <Gold.Id.Protein>
unknown|4v3u_clean|pdb

> <Gold.Protein.RotatedTorsions>
[ 9551 9506 9505 9503 ] final  162.54 input   60.01 | X-H torsion
[ 7905 7872 7871 7868 ] final -175.35 input   60.03 | X-H torsion
[ 7981 7919 7918 7917 ] final  -16.93 input   59.99 | X-H torsion

> <Gold.Protein.ActiveResidues>
 ASP403  THR404  ILE407  TYR408  ALA410  LYS411  TRP414  GLN425  TRP426  SER427 
 LYS428  LEU429  GLN430  VAL431  PHE432  ASP433  TYR453  SER462  ALA463  ILE464 

> <Gold.Protein.RotatedAtoms>
  203.8545   44.7822   60.2803 H   0  0  0  0  0  0  0  0  0  0  0  0  # atno 7905 bound_to 7872
  200.9764   46.1792   66.0128 H   0  0  0  0  0  0  0  0  0  0  0  0  # atno 7981 bound_to 7919
  201.0483   45.3786   67.4630 H   0  0  0  0  0  0  0  0  0  0  0  0  # atno 7982 bound_to 7919
  200.7203   47.0022   67.4293 H   0  0  0  0  0  0  0  0  0  0  0  0  # atno 7983 bound_to 7919
  207.8566   46.6759   73.3131 H   0  0  0  0  0  0  0  0  0  0  0  0  # atno 9551 bound_to 9506
  207.4184   45.1850   72.8294 LP  0  0  0  0  0  0  0  0  0  0  0  0  # atno 27216 bound_to 9506
  208.8090   45.8469   72.2863 LP  0  0  0  0  0  0  0  0  0  0  0  0  # atno 27217 bound_to 9506
  204.0760   44.5588   61.8766 LP  0  0  0  0  0  0  0  0  0  0  0  0  # atno 27226 bound_to 7872
  204.0982   43.2815   60.8595 LP  0  0  0  0  0  0  0  0  0  0  0  0  # atno 27227 bound_to 7872

> <Gold.Score>
     Fitness  S(hb_ext) S(vdw_ext)  S(hb_int)    S(int)      intcor
     22.72       1.15      15.98       0.00      -0.41      -0.76

> <Gold.Goldscore.Fitness>
22.7226

> <Gold.Goldscore.Internal.Vdw>
-0.6284

> <Gold.Goldscore.Internal.Torsion>
-0.5399

> <Gold.Goldscore.External.Vdw>
15.9831

> <Gold.Goldscore.Internal.HBond>
0.0000

> <Gold.Goldscore.External.HBond>
1.1530

> <Gold.Goldscore.Internal.Correction>
-0.7610

> <Gold.Goldscore.Hbonds>
donor molecule, donor type, donor heavy atom, donor atom, acceptor molecule, acceptor atom, score
      P1  H  8082  8127       L1     9  0.03
      L1  H     8    22       P1  8146  0.55

> <Gold.Goldscore.Internal.Vdw.Weighted>
-0.6284

> <Gold.Goldscore.Internal.Torsion.Weighted>
-0.5399

> <Gold.Goldscore.External.Vdw.Weighted>
21.9768

> <Gold.Goldscore.Internal.HBond.Weighted>
0.0000

> <Gold.Goldscore.External.HBond.Weighted>
1.1530

> <Gold.Goldscore.Internal.Correction.Weighted>
-0.7610

> <Gold.Rescore>
     Score     S(PLP)   S(hbond)     S(cho)   S(metal)  DE(clash)   DE(tors)     intcor
     15.23     -11.27       1.99       0.00       0.00       0.01       1.00       ----

> <Gold.PLP.Fitness>
15.2300

> <Gold.PLP.PLP>
-11.2715

> <Gold.PLP.part.hbond>
-2.1444

> <Gold.PLP.part.metal>
0.0000

> <Gold.PLP.part.buried>
-3.5722

> <Gold.PLP.part.nonpolar>
-7.0499

> <Gold.PLP.part.repulsive>
1.9909

> <Gold.PLP.ligand.clash>
0.0139

> <Gold.PLP.ligand.torsion>
1.0018

> <Gold.PLP.Chemscore.Hbond>
1.9920

> <Gold.PLP.Chemscore.CHOScore>
0.0000

> <Gold.PLP.Chemscore.Metal>
0.0000

> <Gold.Chemscore.Hbonds>
donor molecule, donor type, donor heavy atom, donor atom, acceptor molecule, acceptor atom, score
      P1  H  8082  8127       L1     9  0.74

> <Gold.PLP.Chemscore.Internal.Correction>
   9.000000E+99

