#       Name:                GA Fitting Points
#       Creating user name   hitesit
#       Creation time:       Sun Apr 16 02:23:45 2023


#       Fitting Points Used by GA Software.
#

@<TRIPOS>MOLECULE
GA Fitting Points
  1044    0    0
SMALL
NO_CHARGES


@<TRIPOS>ATOM
      1 ****       129.0000 262.7500 369.7500 Du        
      2 ****       129.0000 262.7500 370.0000 Du        
      3 ****       129.0000 262.7500 370.2500 Du        
      4 ****       129.0000 263.0000 369.5000 Du        
      5 ****       129.0000 263.0000 369.7500 Du        
      6 ****       129.0000 263.0000 370.0000 Du        
      7 ****       129.0000 263.0000 370.2500 Du        
      8 ****       129.0000 263.0000 370.5000 Du        
      9 ****       129.0000 263.2500 369.5000 Du        
     10 ****       129.0000 263.2500 369.7500 Du        
     11 ****       129.0000 263.2500 370.0000 Du        
     12 ****       129.0000 263.2500 370.2500 Du        
     13 ****       129.0000 263.2500 370.5000 Du        
     14 ****       129.0000 263.2500 370.7500 Du        
     15 ****       129.0000 263.5000 369.5000 Du        
     16 ****       129.0000 263.5000 369.7500 Du        
     17 ****       129.0000 263.5000 370.0000 Du        
     18 ****       129.0000 263.5000 370.2500 Du        
     19 ****       129.0000 263.5000 370.5000 Du        
     20 ****       129.0000 263.5000 370.7500 Du        
     21 ****       129.0000 263.7500 369.7500 Du        
     22 ****       129.0000 263.7500 370.0000 Du        
     23 ****       129.0000 263.7500 370.2500 Du        
     24 ****       129.0000 263.7500 370.5000 Du        
     25 ****       129.0000 263.7500 370.7500 Du        
     26 ****       129.0000 264.0000 369.7500 Du        
     27 ****       129.0000 264.0000 370.0000 Du        
     28 ****       129.0000 264.0000 370.2500 Du        
     29 ****       129.0000 264.0000 370.5000 Du        
     30 ****       129.0000 264.0000 370.7500 Du        
     31 ****       129.0000 264.2500 369.7500 Du        
     32 ****       129.0000 264.2500 370.0000 Du        
     33 ****       129.0000 264.2500 370.2500 Du        
     34 ****       129.0000 264.2500 370.5000 Du        
     35 ****       129.0000 264.2500 370.7500 Du        
     36 ****       129.0000 264.2500 371.0000 Du        
     37 ****       129.0000 264.5000 370.0000 Du        
     38 ****       129.0000 264.5000 370.2500 Du        
     39 ****       129.0000 264.5000 370.5000 Du        
     40 ****       129.0000 264.5000 370.7500 Du        
     41 ****       129.0000 264.5000 371.0000 Du        
     42 ****       129.0000 264.7500 370.0000 Du        
     43 ****       129.0000 264.7500 370.2500 Du        
     44 ****       129.0000 264.7500 370.5000 Du        
     45 ****       129.0000 264.7500 370.7500 Du        
     46 ****       129.0000 264.7500 371.0000 Du        
     47 ****       129.0000 264.7500 371.2500 Du        
     48 ****       129.0000 265.0000 370.0000 Du        
     49 ****       129.0000 265.0000 370.2500 Du        
     50 ****       129.0000 265.0000 370.5000 Du        
     51 ****       129.0000 265.0000 370.7500 Du        
     52 ****       129.0000 265.0000 371.0000 Du        
     53 ****       129.0000 265.0000 371.2500 Du        
     54 ****       129.0000 265.2500 369.7500 Du        
     55 ****       129.0000 265.2500 370.0000 Du        
     56 ****       129.0000 265.2500 370.2500 Du        
     57 ****       129.0000 265.2500 370.5000 Du        
     58 ****       129.0000 265.2500 370.7500 Du        
     59 ****       129.0000 265.2500 371.0000 Du        
     60 ****       129.0000 265.2500 371.2500 Du        
     61 ****       129.0000 265.2500 371.5000 Du        
     62 ****       129.0000 265.2500 371.7500 Du        
     63 ****       129.0000 265.5000 369.7500 Du        
     64 ****       129.0000 265.5000 370.0000 Du        
     65 ****       129.0000 265.5000 370.2500 Du        
     66 ****       129.0000 265.5000 370.5000 Du        
     67 ****       129.0000 265.5000 370.7500 Du        
     68 ****       129.0000 265.5000 371.0000 Du        
     69 ****       129.0000 265.5000 371.2500 Du        
     70 ****       129.0000 265.5000 371.5000 Du        
     71 ****       129.0000 265.5000 371.7500 Du        
     72 ****       129.0000 265.5000 372.0000 Du        
     73 ****       129.0000 265.7500 369.7500 Du        
     74 ****       129.0000 265.7500 370.0000 Du        
     75 ****       129.0000 265.7500 370.2500 Du        
     76 ****       129.0000 265.7500 370.5000 Du        
     77 ****       129.0000 265.7500 370.7500 Du        
     78 ****       129.0000 265.7500 371.0000 Du        
     79 ****       129.0000 265.7500 371.2500 Du        
     80 ****       129.0000 265.7500 371.5000 Du        
     81 ****       129.0000 265.7500 371.7500 Du        
     82 ****       129.0000 265.7500 372.0000 Du        
     83 ****       129.0000 265.7500 372.2500 Du        
     84 ****       129.0000 265.7500 372.5000 Du        
     85 ****       129.0000 265.7500 372.7500 Du        
     86 ****       129.0000 265.7500 373.0000 Du        
     87 ****       129.0000 266.0000 369.5000 Du        
     88 ****       129.0000 266.0000 369.7500 Du        
     89 ****       129.0000 266.0000 370.0000 Du        
     90 ****       129.0000 266.0000 370.2500 Du        
     91 ****       129.0000 266.0000 370.5000 Du        
     92 ****       129.0000 266.0000 370.7500 Du        
     93 ****       129.0000 266.0000 371.0000 Du        
     94 ****       129.0000 266.0000 371.2500 Du        
     95 ****       129.0000 266.0000 371.5000 Du        
     96 ****       129.0000 266.0000 371.7500 Du        
     97 ****       129.0000 266.0000 372.0000 Du        
     98 ****       129.0000 266.0000 372.2500 Du        
     99 ****       129.0000 266.0000 372.5000 Du        
    100 ****       129.0000 266.0000 372.7500 Du        
    101 ****       129.0000 266.0000 373.0000 Du        
    102 ****       129.0000 266.0000 373.2500 Du        
    103 ****       129.0000 266.2500 369.5000 Du        
    104 ****       129.0000 266.2500 369.7500 Du        
    105 ****       129.0000 266.2500 370.0000 Du        
    106 ****       129.0000 266.2500 370.2500 Du        
    107 ****       129.0000 266.2500 370.5000 Du        
    108 ****       129.0000 266.2500 370.7500 Du        
    109 ****       129.0000 266.2500 371.0000 Du        
    110 ****       129.0000 266.2500 371.2500 Du        
    111 ****       129.0000 266.2500 371.5000 Du        
    112 ****       129.0000 266.2500 371.7500 Du        
    113 ****       129.0000 266.2500 372.0000 Du        
    114 ****       129.0000 266.2500 372.2500 Du        
    115 ****       129.0000 266.2500 372.5000 Du        
    116 ****       129.0000 266.2500 372.7500 Du        
    117 ****       129.0000 266.2500 373.0000 Du        
    118 ****       129.0000 266.2500 373.2500 Du        
    119 ****       129.0000 266.2500 373.5000 Du        
    120 ****       129.0000 266.5000 369.5000 Du        
    121 ****       129.0000 266.5000 369.7500 Du        
    122 ****       129.0000 266.5000 370.0000 Du        
    123 ****       129.0000 266.5000 370.2500 Du        
    124 ****       129.0000 266.5000 370.5000 Du        
    125 ****       129.0000 266.5000 370.7500 Du        
    126 ****       129.0000 266.5000 371.0000 Du        
    127 ****       129.0000 266.5000 371.2500 Du        
    128 ****       129.0000 266.5000 371.5000 Du        
    129 ****       129.0000 266.5000 371.7500 Du        
    130 ****       129.0000 266.5000 372.0000 Du        
    131 ****       129.0000 266.5000 372.2500 Du        
    132 ****       129.0000 266.5000 372.5000 Du        
    133 ****       129.0000 266.5000 372.7500 Du        
    134 ****       129.0000 266.5000 373.0000 Du        
    135 ****       129.0000 266.5000 373.2500 Du        
    136 ****       129.0000 266.5000 373.5000 Du        
    137 ****       129.0000 266.7500 369.2500 Du        
    138 ****       129.0000 266.7500 369.5000 Du        
    139 ****       129.0000 266.7500 369.7500 Du        
    140 ****       129.0000 266.7500 370.0000 Du        
    141 ****       129.0000 266.7500 370.2500 Du        
    142 ****       129.0000 266.7500 370.5000 Du        
    143 ****       129.0000 266.7500 370.7500 Du        
    144 ****       129.0000 266.7500 371.0000 Du        
    145 ****       129.0000 266.7500 371.2500 Du        
    146 ****       129.0000 266.7500 371.5000 Du        
    147 ****       129.0000 266.7500 371.7500 Du        
    148 ****       129.0000 266.7500 372.0000 Du        
    149 ****       129.0000 266.7500 372.2500 Du        
    150 ****       129.0000 266.7500 372.5000 Du        
    151 ****       129.0000 266.7500 372.7500 Du        
    152 ****       129.0000 266.7500 373.0000 Du        
    153 ****       129.0000 266.7500 373.2500 Du        
    154 ****       129.0000 266.7500 373.5000 Du        
    155 ****       129.0000 267.0000 369.5000 Du        
    156 ****       129.0000 267.0000 369.7500 Du        
    157 ****       129.0000 267.0000 370.0000 Du        
    158 ****       129.0000 267.0000 370.2500 Du        
    159 ****       129.0000 267.0000 370.5000 Du        
    160 ****       129.0000 267.0000 370.7500 Du        
    161 ****       129.0000 267.0000 371.0000 Du        
    162 ****       129.0000 267.0000 371.2500 Du        
    163 ****       129.0000 267.0000 371.5000 Du        
    164 ****       129.0000 267.0000 371.7500 Du        
    165 ****       129.0000 267.0000 372.0000 Du        
    166 ****       129.0000 267.0000 372.2500 Du        
    167 ****       129.0000 267.0000 372.5000 Du        
    168 ****       129.0000 267.0000 372.7500 Du        
    169 ****       129.0000 267.0000 373.0000 Du        
    170 ****       129.0000 267.2500 369.7500 Du        
    171 ****       129.0000 267.2500 370.0000 Du        
    172 ****       129.0000 267.2500 370.2500 Du        
    173 ****       129.0000 267.2500 370.5000 Du        
    174 ****       129.0000 267.2500 370.7500 Du        
    175 ****       129.0000 267.2500 371.0000 Du        
    176 ****       129.0000 267.2500 371.2500 Du        
    177 ****       129.0000 267.2500 371.5000 Du        
    178 ****       129.0000 267.2500 371.7500 Du        
    179 ****       129.0000 267.2500 372.0000 Du        
    180 ****       129.0000 267.5000 370.0000 Du        
    181 ****       129.0000 267.5000 370.2500 Du        
    182 ****       129.0000 267.5000 370.5000 Du        
    183 ****       129.0000 267.5000 370.7500 Du        
    184 ****       129.0000 267.5000 371.0000 Du        
    185 ****       129.0000 267.5000 371.2500 Du        
    186 ****       129.0000 267.5000 371.5000 Du        
    187 ****       129.0000 267.7500 370.5000 Du        
    188 ****       129.0000 267.7500 370.7500 Du        
    189 ****       129.0000 267.7500 371.0000 Du        
    190 ****       129.2500 262.5000 370.0000 Du        
    191 ****       129.2500 262.5000 370.2500 Du        
    192 ****       129.2500 262.7500 369.7500 Du        
    193 ****       129.2500 262.7500 370.0000 Du        
    194 ****       129.2500 262.7500 370.2500 Du        
    195 ****       129.2500 263.0000 369.5000 Du        
    196 ****       129.2500 263.0000 369.7500 Du        
    197 ****       129.2500 263.0000 370.0000 Du        
    198 ****       129.2500 263.0000 370.2500 Du        
    199 ****       129.2500 263.0000 370.5000 Du        
    200 ****       129.2500 263.2500 369.5000 Du        
    201 ****       129.2500 263.2500 369.7500 Du        
    202 ****       129.2500 263.2500 370.0000 Du        
    203 ****       129.2500 263.2500 370.2500 Du        
    204 ****       129.2500 263.2500 370.5000 Du        
    205 ****       129.2500 263.5000 369.7500 Du        
    206 ****       129.2500 263.5000 370.0000 Du        
    207 ****       129.2500 263.5000 370.2500 Du        
    208 ****       129.2500 263.5000 370.5000 Du        
    209 ****       129.2500 263.7500 369.7500 Du        
    210 ****       129.2500 263.7500 370.0000 Du        
    211 ****       129.2500 263.7500 370.2500 Du        
    212 ****       129.2500 263.7500 370.5000 Du        
    213 ****       129.2500 263.7500 370.7500 Du        
    214 ****       129.2500 264.0000 370.0000 Du        
    215 ****       129.2500 264.0000 370.2500 Du        
    216 ****       129.2500 264.0000 370.5000 Du        
    217 ****       129.2500 264.0000 370.7500 Du        
    218 ****       129.2500 264.2500 370.0000 Du        
    219 ****       129.2500 264.2500 370.2500 Du        
    220 ****       129.2500 264.2500 370.5000 Du        
    221 ****       129.2500 264.2500 370.7500 Du        
    222 ****       129.2500 264.5000 370.0000 Du        
    223 ****       129.2500 264.5000 370.2500 Du        
    224 ****       129.2500 264.5000 370.5000 Du        
    225 ****       129.2500 264.5000 370.7500 Du        
    226 ****       129.2500 264.7500 370.0000 Du        
    227 ****       129.2500 264.7500 370.2500 Du        
    228 ****       129.2500 264.7500 370.5000 Du        
    229 ****       129.2500 264.7500 370.7500 Du        
    230 ****       129.2500 264.7500 371.0000 Du        
    231 ****       129.2500 265.0000 370.0000 Du        
    232 ****       129.2500 265.0000 370.2500 Du        
    233 ****       129.2500 265.0000 370.5000 Du        
    234 ****       129.2500 265.0000 370.7500 Du        
    235 ****       129.2500 265.0000 371.0000 Du        
    236 ****       129.2500 265.0000 371.2500 Du        
    237 ****       129.2500 265.2500 370.0000 Du        
    238 ****       129.2500 265.2500 370.2500 Du        
    239 ****       129.2500 265.2500 370.5000 Du        
    240 ****       129.2500 265.2500 370.7500 Du        
    241 ****       129.2500 265.2500 371.0000 Du        
    242 ****       129.2500 265.2500 371.2500 Du        
    243 ****       129.2500 265.2500 371.5000 Du        
    244 ****       129.2500 265.5000 370.0000 Du        
    245 ****       129.2500 265.5000 370.2500 Du        
    246 ****       129.2500 265.5000 370.5000 Du        
    247 ****       129.2500 265.5000 370.7500 Du        
    248 ****       129.2500 265.5000 371.0000 Du        
    249 ****       129.2500 265.5000 371.2500 Du        
    250 ****       129.2500 265.5000 371.5000 Du        
    251 ****       129.2500 265.5000 371.7500 Du        
    252 ****       129.2500 265.7500 369.7500 Du        
    253 ****       129.2500 265.7500 370.0000 Du        
    254 ****       129.2500 265.7500 370.2500 Du        
    255 ****       129.2500 265.7500 370.5000 Du        
    256 ****       129.2500 265.7500 370.7500 Du        
    257 ****       129.2500 265.7500 371.0000 Du        
    258 ****       129.2500 265.7500 371.2500 Du        
    259 ****       129.2500 265.7500 371.5000 Du        
    260 ****       129.2500 265.7500 371.7500 Du        
    261 ****       129.2500 265.7500 372.0000 Du        
    262 ****       129.2500 265.7500 372.2500 Du        
    263 ****       129.2500 265.7500 372.5000 Du        
    264 ****       129.2500 266.0000 369.7500 Du        
    265 ****       129.2500 266.0000 370.0000 Du        
    266 ****       129.2500 266.0000 370.2500 Du        
    267 ****       129.2500 266.0000 370.5000 Du        
    268 ****       129.2500 266.0000 370.7500 Du        
    269 ****       129.2500 266.0000 371.0000 Du        
    270 ****       129.2500 266.0000 371.2500 Du        
    271 ****       129.2500 266.0000 371.5000 Du        
    272 ****       129.2500 266.0000 371.7500 Du        
    273 ****       129.2500 266.0000 372.0000 Du        
    274 ****       129.2500 266.0000 372.2500 Du        
    275 ****       129.2500 266.0000 372.5000 Du        
    276 ****       129.2500 266.0000 372.7500 Du        
    277 ****       129.2500 266.0000 373.0000 Du        
    278 ****       129.2500 266.0000 373.2500 Du        
    279 ****       129.2500 266.0000 373.5000 Du        
    280 ****       129.2500 266.2500 369.7500 Du        
    281 ****       129.2500 266.2500 370.0000 Du        
    282 ****       129.2500 266.2500 370.2500 Du        
    283 ****       129.2500 266.2500 370.5000 Du        
    284 ****       129.2500 266.2500 370.7500 Du        
    285 ****       129.2500 266.2500 371.0000 Du        
    286 ****       129.2500 266.2500 371.2500 Du        
    287 ****       129.2500 266.2500 371.5000 Du        
    288 ****       129.2500 266.2500 371.7500 Du        
    289 ****       129.2500 266.2500 372.0000 Du        
    290 ****       129.2500 266.2500 372.2500 Du        
    291 ****       129.2500 266.2500 372.5000 Du        
    292 ****       129.2500 266.2500 372.7500 Du        
    293 ****       129.2500 266.2500 373.0000 Du        
    294 ****       129.2500 266.2500 373.2500 Du        
    295 ****       129.2500 266.2500 373.5000 Du        
    296 ****       129.2500 266.2500 373.7500 Du        
    297 ****       129.2500 266.5000 369.7500 Du        
    298 ****       129.2500 266.5000 370.0000 Du        
    299 ****       129.2500 266.5000 370.2500 Du        
    300 ****       129.2500 266.5000 370.5000 Du        
    301 ****       129.2500 266.5000 370.7500 Du        
    302 ****       129.2500 266.5000 371.0000 Du        
    303 ****       129.2500 266.5000 371.2500 Du        
    304 ****       129.2500 266.5000 371.5000 Du        
    305 ****       129.2500 266.5000 371.7500 Du        
    306 ****       129.2500 266.5000 372.0000 Du        
    307 ****       129.2500 266.5000 372.2500 Du        
    308 ****       129.2500 266.5000 372.5000 Du        
    309 ****       129.2500 266.5000 372.7500 Du        
    310 ****       129.2500 266.5000 373.0000 Du        
    311 ****       129.2500 266.5000 373.2500 Du        
    312 ****       129.2500 266.5000 373.5000 Du        
    313 ****       129.2500 266.5000 373.7500 Du        
    314 ****       129.2500 266.7500 369.5000 Du        
    315 ****       129.2500 266.7500 369.7500 Du        
    316 ****       129.2500 266.7500 370.0000 Du        
    317 ****       129.2500 266.7500 370.2500 Du        
    318 ****       129.2500 266.7500 370.5000 Du        
    319 ****       129.2500 266.7500 370.7500 Du        
    320 ****       129.2500 266.7500 371.0000 Du        
    321 ****       129.2500 266.7500 371.2500 Du        
    322 ****       129.2500 266.7500 371.5000 Du        
    323 ****       129.2500 266.7500 371.7500 Du        
    324 ****       129.2500 266.7500 372.0000 Du        
    325 ****       129.2500 266.7500 372.2500 Du        
    326 ****       129.2500 266.7500 372.5000 Du        
    327 ****       129.2500 266.7500 372.7500 Du        
    328 ****       129.2500 266.7500 373.0000 Du        
    329 ****       129.2500 266.7500 373.2500 Du        
    330 ****       129.2500 266.7500 373.5000 Du        
    331 ****       129.2500 266.7500 373.7500 Du        
    332 ****       129.2500 267.0000 369.7500 Du        
    333 ****       129.2500 267.0000 370.0000 Du        
    334 ****       129.2500 267.0000 370.2500 Du        
    335 ****       129.2500 267.0000 370.5000 Du        
    336 ****       129.2500 267.0000 370.7500 Du        
    337 ****       129.2500 267.0000 371.0000 Du        
    338 ****       129.2500 267.0000 371.2500 Du        
    339 ****       129.2500 267.0000 371.5000 Du        
    340 ****       129.2500 267.0000 371.7500 Du        
    341 ****       129.2500 267.0000 372.0000 Du        
    342 ****       129.2500 267.0000 372.2500 Du        
    343 ****       129.2500 267.0000 372.5000 Du        
    344 ****       129.2500 267.0000 372.7500 Du        
    345 ****       129.2500 267.0000 373.0000 Du        
    346 ****       129.2500 267.0000 373.2500 Du        
    347 ****       129.2500 267.0000 373.5000 Du        
    348 ****       129.2500 267.2500 369.7500 Du        
    349 ****       129.2500 267.2500 370.0000 Du        
    350 ****       129.2500 267.2500 370.2500 Du        
    351 ****       129.2500 267.2500 370.5000 Du        
    352 ****       129.2500 267.2500 370.7500 Du        
    353 ****       129.2500 267.2500 371.0000 Du        
    354 ****       129.2500 267.2500 371.2500 Du        
    355 ****       129.2500 267.2500 371.5000 Du        
    356 ****       129.2500 267.2500 371.7500 Du        
    357 ****       129.2500 267.2500 372.0000 Du        
    358 ****       129.2500 267.2500 372.2500 Du        
    359 ****       129.2500 267.2500 372.5000 Du        
    360 ****       129.2500 267.5000 370.2500 Du        
    361 ****       129.2500 267.5000 370.5000 Du        
    362 ****       129.2500 267.5000 370.7500 Du        
    363 ****       129.2500 267.5000 371.0000 Du        
    364 ****       129.2500 267.5000 371.2500 Du        
    365 ****       129.2500 267.5000 371.5000 Du        
    366 ****       129.2500 267.5000 371.7500 Du        
    367 ****       129.2500 267.5000 372.0000 Du        
    368 ****       129.2500 267.7500 370.5000 Du        
    369 ****       129.2500 267.7500 370.7500 Du        
    370 ****       129.2500 267.7500 371.0000 Du        
    371 ****       129.2500 267.7500 371.2500 Du        
    372 ****       129.2500 267.7500 371.5000 Du        
    373 ****       129.2500 268.0000 370.7500 Du        
    374 ****       129.2500 268.0000 371.0000 Du        
    375 ****       129.2500 268.0000 371.2500 Du        
    376 ****       129.5000 262.5000 370.0000 Du        
    377 ****       129.5000 262.5000 370.2500 Du        
    378 ****       129.5000 262.7500 369.7500 Du        
    379 ****       129.5000 262.7500 370.0000 Du        
    380 ****       129.5000 262.7500 370.2500 Du        
    381 ****       129.5000 263.0000 369.7500 Du        
    382 ****       129.5000 263.0000 370.0000 Du        
    383 ****       129.5000 263.0000 370.2500 Du        
    384 ****       129.5000 263.0000 370.5000 Du        
    385 ****       129.5000 263.2500 369.7500 Du        
    386 ****       129.5000 263.2500 370.0000 Du        
    387 ****       129.5000 263.2500 370.2500 Du        
    388 ****       129.5000 263.2500 370.5000 Du        
    389 ****       129.5000 263.5000 370.0000 Du        
    390 ****       129.5000 263.5000 370.2500 Du        
    391 ****       129.5000 263.5000 370.5000 Du        
    392 ****       129.5000 263.7500 370.0000 Du        
    393 ****       129.5000 263.7500 370.2500 Du        
    394 ****       129.5000 263.7500 370.5000 Du        
    395 ****       129.5000 264.0000 370.2500 Du        
    396 ****       129.5000 264.0000 370.5000 Du        
    397 ****       129.5000 264.2500 370.2500 Du        
    398 ****       129.5000 264.2500 370.5000 Du        
    399 ****       129.5000 264.5000 370.5000 Du        
    400 ****       129.5000 264.7500 370.5000 Du        
    401 ****       129.5000 264.7500 370.7500 Du        
    402 ****       129.5000 265.0000 370.5000 Du        
    403 ****       129.5000 265.0000 370.7500 Du        
    404 ****       129.5000 265.2500 370.2500 Du        
    405 ****       129.5000 265.2500 370.5000 Du        
    406 ****       129.5000 265.2500 370.7500 Du        
    407 ****       129.5000 265.2500 371.0000 Du        
    408 ****       129.5000 265.5000 370.2500 Du        
    409 ****       129.5000 265.5000 370.5000 Du        
    410 ****       129.5000 265.5000 370.7500 Du        
    411 ****       129.5000 265.5000 371.0000 Du        
    412 ****       129.5000 265.5000 371.2500 Du        
    413 ****       129.5000 265.7500 370.0000 Du        
    414 ****       129.5000 265.7500 370.2500 Du        
    415 ****       129.5000 265.7500 370.5000 Du        
    416 ****       129.5000 265.7500 370.7500 Du        
    417 ****       129.5000 265.7500 371.0000 Du        
    418 ****       129.5000 265.7500 371.2500 Du        
    419 ****       129.5000 265.7500 371.5000 Du        
    420 ****       129.5000 265.7500 371.7500 Du        
    421 ****       129.5000 266.0000 370.0000 Du        
    422 ****       129.5000 266.0000 370.2500 Du        
    423 ****       129.5000 266.0000 370.5000 Du        
    424 ****       129.5000 266.0000 370.7500 Du        
    425 ****       129.5000 266.0000 371.0000 Du        
    426 ****       129.5000 266.0000 371.2500 Du        
    427 ****       129.5000 266.0000 371.5000 Du        
    428 ****       129.5000 266.0000 371.7500 Du        
    429 ****       129.5000 266.0000 372.0000 Du        
    430 ****       129.5000 266.0000 372.2500 Du        
    431 ****       129.5000 266.0000 372.5000 Du        
    432 ****       129.5000 266.0000 372.7500 Du        
    433 ****       129.5000 266.0000 373.0000 Du        
    434 ****       129.5000 266.0000 373.2500 Du        
    435 ****       129.5000 266.2500 369.7500 Du        
    436 ****       129.5000 266.2500 370.0000 Du        
    437 ****       129.5000 266.2500 370.2500 Du        
    438 ****       129.5000 266.2500 370.5000 Du        
    439 ****       129.5000 266.2500 370.7500 Du        
    440 ****       129.5000 266.2500 371.0000 Du        
    441 ****       129.5000 266.2500 371.2500 Du        
    442 ****       129.5000 266.2500 371.5000 Du        
    443 ****       129.5000 266.2500 371.7500 Du        
    444 ****       129.5000 266.2500 372.0000 Du        
    445 ****       129.5000 266.2500 372.2500 Du        
    446 ****       129.5000 266.2500 372.5000 Du        
    447 ****       129.5000 266.2500 372.7500 Du        
    448 ****       129.5000 266.2500 373.0000 Du        
    449 ****       129.5000 266.2500 373.2500 Du        
    450 ****       129.5000 266.2500 373.5000 Du        
    451 ****       129.5000 266.2500 373.7500 Du        
    452 ****       129.5000 266.5000 369.7500 Du        
    453 ****       129.5000 266.5000 370.0000 Du        
    454 ****       129.5000 266.5000 370.2500 Du        
    455 ****       129.5000 266.5000 370.5000 Du        
    456 ****       129.5000 266.5000 370.7500 Du        
    457 ****       129.5000 266.5000 371.0000 Du        
    458 ****       129.5000 266.5000 371.2500 Du        
    459 ****       129.5000 266.5000 371.5000 Du        
    460 ****       129.5000 266.5000 371.7500 Du        
    461 ****       129.5000 266.5000 372.0000 Du        
    462 ****       129.5000 266.5000 372.2500 Du        
    463 ****       129.5000 266.5000 372.5000 Du        
    464 ****       129.5000 266.5000 372.7500 Du        
    465 ****       129.5000 266.5000 373.0000 Du        
    466 ****       129.5000 266.5000 373.2500 Du        
    467 ****       129.5000 266.5000 373.5000 Du        
    468 ****       129.5000 266.5000 373.7500 Du        
    469 ****       129.5000 266.5000 374.0000 Du        
    470 ****       129.5000 266.7500 369.7500 Du        
    471 ****       129.5000 266.7500 370.0000 Du        
    472 ****       129.5000 266.7500 370.2500 Du        
    473 ****       129.5000 266.7500 370.5000 Du        
    474 ****       129.5000 266.7500 370.7500 Du        
    475 ****       129.5000 266.7500 371.0000 Du        
    476 ****       129.5000 266.7500 371.2500 Du        
    477 ****       129.5000 266.7500 371.5000 Du        
    478 ****       129.5000 266.7500 371.7500 Du        
    479 ****       129.5000 266.7500 372.0000 Du        
    480 ****       129.5000 266.7500 372.2500 Du        
    481 ****       129.5000 266.7500 372.5000 Du        
    482 ****       129.5000 266.7500 372.7500 Du        
    483 ****       129.5000 266.7500 373.0000 Du        
    484 ****       129.5000 266.7500 373.2500 Du        
    485 ****       129.5000 266.7500 373.5000 Du        
    486 ****       129.5000 266.7500 373.7500 Du        
    487 ****       129.5000 266.7500 374.0000 Du        
    488 ****       129.5000 267.0000 369.7500 Du        
    489 ****       129.5000 267.0000 370.0000 Du        
    490 ****       129.5000 267.0000 370.2500 Du        
    491 ****       129.5000 267.0000 370.5000 Du        
    492 ****       129.5000 267.0000 370.7500 Du        
    493 ****       129.5000 267.0000 371.0000 Du        
    494 ****       129.5000 267.0000 371.2500 Du        
    495 ****       129.5000 267.0000 371.5000 Du        
    496 ****       129.5000 267.0000 371.7500 Du        
    497 ****       129.5000 267.0000 372.0000 Du        
    498 ****       129.5000 267.0000 372.2500 Du        
    499 ****       129.5000 267.0000 372.5000 Du        
    500 ****       129.5000 267.0000 372.7500 Du        
    501 ****       129.5000 267.0000 373.0000 Du        
    502 ****       129.5000 267.0000 373.2500 Du        
    503 ****       129.5000 267.0000 373.5000 Du        
    504 ****       129.5000 267.0000 373.7500 Du        
    505 ****       129.5000 267.0000 374.0000 Du        
    506 ****       129.5000 267.2500 370.0000 Du        
    507 ****       129.5000 267.2500 370.2500 Du        
    508 ****       129.5000 267.2500 370.5000 Du        
    509 ****       129.5000 267.2500 370.7500 Du        
    510 ****       129.5000 267.2500 371.0000 Du        
    511 ****       129.5000 267.2500 371.2500 Du        
    512 ****       129.5000 267.2500 371.5000 Du        
    513 ****       129.5000 267.2500 371.7500 Du        
    514 ****       129.5000 267.2500 372.0000 Du        
    515 ****       129.5000 267.2500 372.2500 Du        
    516 ****       129.5000 267.2500 372.5000 Du        
    517 ****       129.5000 267.2500 372.7500 Du        
    518 ****       129.5000 267.2500 373.0000 Du        
    519 ****       129.5000 267.2500 373.2500 Du        
    520 ****       129.5000 267.5000 370.2500 Du        
    521 ****       129.5000 267.5000 370.5000 Du        
    522 ****       129.5000 267.5000 370.7500 Du        
    523 ****       129.5000 267.5000 371.0000 Du        
    524 ****       129.5000 267.5000 371.2500 Du        
    525 ****       129.5000 267.5000 371.5000 Du        
    526 ****       129.5000 267.5000 371.7500 Du        
    527 ****       129.5000 267.5000 372.0000 Du        
    528 ****       129.5000 267.5000 372.2500 Du        
    529 ****       129.5000 267.7500 370.5000 Du        
    530 ****       129.5000 267.7500 370.7500 Du        
    531 ****       129.5000 267.7500 371.0000 Du        
    532 ****       129.5000 267.7500 371.2500 Du        
    533 ****       129.5000 267.7500 371.5000 Du        
    534 ****       129.5000 267.7500 371.7500 Du        
    535 ****       129.5000 267.7500 372.0000 Du        
    536 ****       129.5000 268.0000 370.7500 Du        
    537 ****       129.5000 268.0000 371.0000 Du        
    538 ****       129.5000 268.0000 371.2500 Du        
    539 ****       129.5000 268.0000 371.5000 Du        
    540 ****       129.5000 268.2500 371.0000 Du        
    541 ****       129.5000 268.2500 371.2500 Du        
    542 ****       129.7500 262.7500 370.0000 Du        
    543 ****       129.7500 262.7500 370.2500 Du        
    544 ****       129.7500 263.0000 369.7500 Du        
    545 ****       129.7500 263.0000 370.0000 Du        
    546 ****       129.7500 263.0000 370.2500 Du        
    547 ****       129.7500 263.2500 370.0000 Du        
    548 ****       129.7500 263.2500 370.2500 Du        
    549 ****       129.7500 263.5000 370.0000 Du        
    550 ****       129.7500 263.5000 370.2500 Du        
    551 ****       129.7500 263.7500 370.2500 Du        
    552 ****       129.7500 266.0000 370.7500 Du        
    553 ****       129.7500 266.0000 371.0000 Du        
    554 ****       129.7500 266.0000 371.2500 Du        
    555 ****       129.7500 266.0000 371.5000 Du        
    556 ****       129.7500 266.0000 371.7500 Du        
    557 ****       129.7500 266.0000 372.0000 Du        
    558 ****       129.7500 266.2500 370.0000 Du        
    559 ****       129.7500 266.2500 370.2500 Du        
    560 ****       129.7500 266.2500 370.5000 Du        
    561 ****       129.7500 266.2500 370.7500 Du        
    562 ****       129.7500 266.2500 371.0000 Du        
    563 ****       129.7500 266.2500 371.2500 Du        
    564 ****       129.7500 266.2500 371.5000 Du        
    565 ****       129.7500 266.2500 371.7500 Du        
    566 ****       129.7500 266.2500 372.0000 Du        
    567 ****       129.7500 266.2500 372.2500 Du        
    568 ****       129.7500 266.2500 372.5000 Du        
    569 ****       129.7500 266.2500 372.7500 Du        
    570 ****       129.7500 266.2500 373.0000 Du        
    571 ****       129.7500 266.2500 373.2500 Du        
    572 ****       129.7500 266.2500 373.5000 Du        
    573 ****       129.7500 266.2500 373.7500 Du        
    574 ****       129.7500 266.5000 370.0000 Du        
    575 ****       129.7500 266.5000 370.2500 Du        
    576 ****       129.7500 266.5000 370.5000 Du        
    577 ****       129.7500 266.5000 370.7500 Du        
    578 ****       129.7500 266.5000 371.0000 Du        
    579 ****       129.7500 266.5000 371.2500 Du        
    580 ****       129.7500 266.5000 371.5000 Du        
    581 ****       129.7500 266.5000 371.7500 Du        
    582 ****       129.7500 266.5000 372.0000 Du        
    583 ****       129.7500 266.5000 372.2500 Du        
    584 ****       129.7500 266.5000 372.5000 Du        
    585 ****       129.7500 266.5000 372.7500 Du        
    586 ****       129.7500 266.5000 373.0000 Du        
    587 ****       129.7500 266.5000 373.2500 Du        
    588 ****       129.7500 266.5000 373.5000 Du        
    589 ****       129.7500 266.5000 373.7500 Du        
    590 ****       129.7500 266.5000 374.0000 Du        
    591 ****       129.7500 266.7500 369.7500 Du        
    592 ****       129.7500 266.7500 370.0000 Du        
    593 ****       129.7500 266.7500 370.2500 Du        
    594 ****       129.7500 266.7500 370.5000 Du        
    595 ****       129.7500 266.7500 370.7500 Du        
    596 ****       129.7500 266.7500 371.0000 Du        
    597 ****       129.7500 266.7500 371.2500 Du        
    598 ****       129.7500 266.7500 371.5000 Du        
    599 ****       129.7500 266.7500 371.7500 Du        
    600 ****       129.7500 266.7500 372.0000 Du        
    601 ****       129.7500 266.7500 372.2500 Du        
    602 ****       129.7500 266.7500 372.5000 Du        
    603 ****       129.7500 266.7500 372.7500 Du        
    604 ****       129.7500 266.7500 373.0000 Du        
    605 ****       129.7500 266.7500 373.2500 Du        
    606 ****       129.7500 266.7500 373.5000 Du        
    607 ****       129.7500 266.7500 373.7500 Du        
    608 ****       129.7500 266.7500 374.0000 Du        
    609 ****       129.7500 267.0000 369.7500 Du        
    610 ****       129.7500 267.0000 370.0000 Du        
    611 ****       129.7500 267.0000 370.2500 Du        
    612 ****       129.7500 267.0000 370.5000 Du        
    613 ****       129.7500 267.0000 370.7500 Du        
    614 ****       129.7500 267.0000 371.0000 Du        
    615 ****       129.7500 267.0000 371.2500 Du        
    616 ****       129.7500 267.0000 371.5000 Du        
    617 ****       129.7500 267.0000 371.7500 Du        
    618 ****       129.7500 267.0000 372.0000 Du        
    619 ****       129.7500 267.0000 372.2500 Du        
    620 ****       129.7500 267.0000 372.5000 Du        
    621 ****       129.7500 267.0000 372.7500 Du        
    622 ****       129.7500 267.0000 373.0000 Du        
    623 ****       129.7500 267.0000 373.2500 Du        
    624 ****       129.7500 267.0000 373.5000 Du        
    625 ****       129.7500 267.0000 373.7500 Du        
    626 ****       129.7500 267.0000 374.0000 Du        
    627 ****       129.7500 267.2500 370.0000 Du        
    628 ****       129.7500 267.2500 370.2500 Du        
    629 ****       129.7500 267.2500 370.5000 Du        
    630 ****       129.7500 267.2500 370.7500 Du        
    631 ****       129.7500 267.2500 371.0000 Du        
    632 ****       129.7500 267.2500 371.2500 Du        
    633 ****       129.7500 267.2500 371.5000 Du        
    634 ****       129.7500 267.2500 371.7500 Du        
    635 ****       129.7500 267.2500 372.0000 Du        
    636 ****       129.7500 267.2500 372.2500 Du        
    637 ****       129.7500 267.2500 372.5000 Du        
    638 ****       129.7500 267.2500 372.7500 Du        
    639 ****       129.7500 267.2500 373.0000 Du        
    640 ****       129.7500 267.2500 373.2500 Du        
    641 ****       129.7500 267.2500 373.5000 Du        
    642 ****       129.7500 267.2500 373.7500 Du        
    643 ****       129.7500 267.2500 374.0000 Du        
    644 ****       129.7500 267.5000 370.2500 Du        
    645 ****       129.7500 267.5000 370.5000 Du        
    646 ****       129.7500 267.5000 370.7500 Du        
    647 ****       129.7500 267.5000 371.0000 Du        
    648 ****       129.7500 267.5000 371.2500 Du        
    649 ****       129.7500 267.5000 371.5000 Du        
    650 ****       129.7500 267.5000 371.7500 Du        
    651 ****       129.7500 267.5000 372.0000 Du        
    652 ****       129.7500 267.5000 372.2500 Du        
    653 ****       129.7500 267.5000 372.5000 Du        
    654 ****       129.7500 267.5000 372.7500 Du        
    655 ****       129.7500 267.5000 373.0000 Du        
    656 ****       129.7500 267.5000 373.2500 Du        
    657 ****       129.7500 267.7500 370.5000 Du        
    658 ****       129.7500 267.7500 370.7500 Du        
    659 ****       129.7500 267.7500 371.0000 Du        
    660 ****       129.7500 267.7500 371.2500 Du        
    661 ****       129.7500 267.7500 371.5000 Du        
    662 ****       129.7500 267.7500 371.7500 Du        
    663 ****       129.7500 267.7500 372.0000 Du        
    664 ****       129.7500 267.7500 372.2500 Du        
    665 ****       129.7500 267.7500 372.5000 Du        
    666 ****       129.7500 268.0000 370.7500 Du        
    667 ****       129.7500 268.0000 371.0000 Du        
    668 ****       129.7500 268.0000 371.2500 Du        
    669 ****       129.7500 268.0000 371.5000 Du        
    670 ****       129.7500 268.0000 371.7500 Du        
    671 ****       129.7500 268.0000 372.0000 Du        
    672 ****       129.7500 268.2500 371.0000 Du        
    673 ****       129.7500 268.2500 371.2500 Du        
    674 ****       129.7500 268.2500 371.5000 Du        
    675 ****       129.7500 268.2500 371.7500 Du        
    676 ****       129.7500 268.5000 371.2500 Du        
    677 ****       130.0000 266.2500 373.2500 Du        
    678 ****       130.0000 266.2500 373.5000 Du        
    679 ****       130.0000 266.2500 373.7500 Du        
    680 ****       130.0000 266.2500 374.0000 Du        
    681 ****       130.0000 266.5000 371.0000 Du        
    682 ****       130.0000 266.5000 371.2500 Du        
    683 ****       130.0000 266.5000 371.5000 Du        
    684 ****       130.0000 266.5000 371.7500 Du        
    685 ****       130.0000 266.5000 372.0000 Du        
    686 ****       130.0000 266.5000 372.2500 Du        
    687 ****       130.0000 266.5000 372.5000 Du        
    688 ****       130.0000 266.5000 372.7500 Du        
    689 ****       130.0000 266.5000 373.0000 Du        
    690 ****       130.0000 266.5000 373.2500 Du        
    691 ****       130.0000 266.5000 373.5000 Du        
    692 ****       130.0000 266.5000 373.7500 Du        
    693 ****       130.0000 266.5000 374.0000 Du        
    694 ****       130.0000 266.7500 370.2500 Du        
    695 ****       130.0000 266.7500 370.5000 Du        
    696 ****       130.0000 266.7500 370.7500 Du        
    697 ****       130.0000 266.7500 371.0000 Du        
    698 ****       130.0000 266.7500 371.2500 Du        
    699 ****       130.0000 266.7500 371.5000 Du        
    700 ****       130.0000 266.7500 371.7500 Du        
    701 ****       130.0000 266.7500 372.0000 Du        
    702 ****       130.0000 266.7500 372.2500 Du        
    703 ****       130.0000 266.7500 372.5000 Du        
    704 ****       130.0000 266.7500 372.7500 Du        
    705 ****       130.0000 266.7500 373.0000 Du        
    706 ****       130.0000 266.7500 373.2500 Du        
    707 ****       130.0000 266.7500 373.5000 Du        
    708 ****       130.0000 266.7500 373.7500 Du        
    709 ****       130.0000 266.7500 374.0000 Du        
    710 ****       130.0000 267.0000 370.0000 Du        
    711 ****       130.0000 267.0000 370.2500 Du        
    712 ****       130.0000 267.0000 370.5000 Du        
    713 ****       130.0000 267.0000 370.7500 Du        
    714 ****       130.0000 267.0000 371.0000 Du        
    715 ****       130.0000 267.0000 371.2500 Du        
    716 ****       130.0000 267.0000 371.5000 Du        
    717 ****       130.0000 267.0000 371.7500 Du        
    718 ****       130.0000 267.0000 372.0000 Du        
    719 ****       130.0000 267.0000 372.2500 Du        
    720 ****       130.0000 267.0000 372.5000 Du        
    721 ****       130.0000 267.0000 372.7500 Du        
    722 ****       130.0000 267.0000 373.0000 Du        
    723 ****       130.0000 267.0000 373.2500 Du        
    724 ****       130.0000 267.0000 373.5000 Du        
    725 ****       130.0000 267.0000 373.7500 Du        
    726 ****       130.0000 267.0000 374.0000 Du        
    727 ****       130.0000 267.2500 370.2500 Du        
    728 ****       130.0000 267.2500 370.5000 Du        
    729 ****       130.0000 267.2500 370.7500 Du        
    730 ****       130.0000 267.2500 371.0000 Du        
    731 ****       130.0000 267.2500 371.2500 Du        
    732 ****       130.0000 267.2500 371.5000 Du        
    733 ****       130.0000 267.2500 371.7500 Du        
    734 ****       130.0000 267.2500 372.0000 Du        
    735 ****       130.0000 267.2500 372.2500 Du        
    736 ****       130.0000 267.2500 372.5000 Du        
    737 ****       130.0000 267.2500 372.7500 Du        
    738 ****       130.0000 267.2500 373.0000 Du        
    739 ****       130.0000 267.2500 373.2500 Du        
    740 ****       130.0000 267.2500 373.5000 Du        
    741 ****       130.0000 267.2500 373.7500 Du        
    742 ****       130.0000 267.2500 374.0000 Du        
    743 ****       130.0000 267.5000 370.2500 Du        
    744 ****       130.0000 267.5000 370.5000 Du        
    745 ****       130.0000 267.5000 370.7500 Du        
    746 ****       130.0000 267.5000 371.0000 Du        
    747 ****       130.0000 267.5000 371.2500 Du        
    748 ****       130.0000 267.5000 371.5000 Du        
    749 ****       130.0000 267.5000 371.7500 Du        
    750 ****       130.0000 267.5000 372.0000 Du        
    751 ****       130.0000 267.5000 372.2500 Du        
    752 ****       130.0000 267.5000 372.5000 Du        
    753 ****       130.0000 267.5000 372.7500 Du        
    754 ****       130.0000 267.5000 373.0000 Du        
    755 ****       130.0000 267.5000 373.2500 Du        
    756 ****       130.0000 267.5000 373.5000 Du        
    757 ****       130.0000 267.5000 373.7500 Du        
    758 ****       130.0000 267.5000 374.0000 Du        
    759 ****       130.0000 267.7500 370.5000 Du        
    760 ****       130.0000 267.7500 370.7500 Du        
    761 ****       130.0000 267.7500 371.0000 Du        
    762 ****       130.0000 267.7500 371.2500 Du        
    763 ****       130.0000 267.7500 371.5000 Du        
    764 ****       130.0000 267.7500 371.7500 Du        
    765 ****       130.0000 267.7500 372.0000 Du        
    766 ****       130.0000 267.7500 372.2500 Du        
    767 ****       130.0000 267.7500 372.5000 Du        
    768 ****       130.0000 267.7500 372.7500 Du        
    769 ****       130.0000 267.7500 373.0000 Du        
    770 ****       130.0000 267.7500 373.2500 Du        
    771 ****       130.0000 267.7500 373.5000 Du        
    772 ****       130.0000 267.7500 373.7500 Du        
    773 ****       130.0000 268.0000 370.7500 Du        
    774 ****       130.0000 268.0000 371.0000 Du        
    775 ****       130.0000 268.0000 371.2500 Du        
    776 ****       130.0000 268.0000 371.5000 Du        
    777 ****       130.0000 268.0000 371.7500 Du        
    778 ****       130.0000 268.0000 372.0000 Du        
    779 ****       130.0000 268.0000 372.2500 Du        
    780 ****       130.0000 268.0000 372.5000 Du        
    781 ****       130.0000 268.0000 372.7500 Du        
    782 ****       130.0000 268.2500 370.7500 Du        
    783 ****       130.0000 268.2500 371.0000 Du        
    784 ****       130.0000 268.2500 371.2500 Du        
    785 ****       130.0000 268.2500 371.5000 Du        
    786 ****       130.0000 268.2500 371.7500 Du        
    787 ****       130.0000 268.2500 372.0000 Du        
    788 ****       130.0000 268.2500 372.2500 Du        
    789 ****       130.0000 268.5000 371.0000 Du        
    790 ****       130.0000 268.5000 371.2500 Du        
    791 ****       130.0000 268.5000 371.5000 Du        
    792 ****       130.0000 268.5000 371.7500 Du        
    793 ****       130.0000 268.7500 371.2500 Du        
    794 ****       130.0000 268.7500 371.5000 Du        
    795 ****       130.2500 266.5000 372.7500 Du        
    796 ****       130.2500 266.5000 373.0000 Du        
    797 ****       130.2500 266.5000 373.2500 Du        
    798 ****       130.2500 266.5000 373.5000 Du        
    799 ****       130.2500 266.5000 373.7500 Du        
    800 ****       130.2500 266.5000 374.0000 Du        
    801 ****       130.2500 266.7500 371.5000 Du        
    802 ****       130.2500 266.7500 371.7500 Du        
    803 ****       130.2500 266.7500 372.0000 Du        
    804 ****       130.2500 266.7500 372.2500 Du        
    805 ****       130.2500 266.7500 372.5000 Du        
    806 ****       130.2500 266.7500 372.7500 Du        
    807 ****       130.2500 266.7500 373.0000 Du        
    808 ****       130.2500 266.7500 373.2500 Du        
    809 ****       130.2500 266.7500 373.5000 Du        
    810 ****       130.2500 266.7500 373.7500 Du        
    811 ****       130.2500 266.7500 374.0000 Du        
    812 ****       130.2500 267.0000 370.7500 Du        
    813 ****       130.2500 267.0000 371.0000 Du        
    814 ****       130.2500 267.0000 371.2500 Du        
    815 ****       130.2500 267.0000 371.5000 Du        
    816 ****       130.2500 267.0000 371.7500 Du        
    817 ****       130.2500 267.0000 372.0000 Du        
    818 ****       130.2500 267.0000 372.2500 Du        
    819 ****       130.2500 267.0000 372.5000 Du        
    820 ****       130.2500 267.0000 372.7500 Du        
    821 ****       130.2500 267.0000 373.0000 Du        
    822 ****       130.2500 267.0000 373.2500 Du        
    823 ****       130.2500 267.0000 373.5000 Du        
    824 ****       130.2500 267.0000 373.7500 Du        
    825 ****       130.2500 267.0000 374.0000 Du        
    826 ****       130.2500 267.2500 370.5000 Du        
    827 ****       130.2500 267.2500 370.7500 Du        
    828 ****       130.2500 267.2500 371.0000 Du        
    829 ****       130.2500 267.2500 371.2500 Du        
    830 ****       130.2500 267.2500 371.5000 Du        
    831 ****       130.2500 267.2500 371.7500 Du        
    832 ****       130.2500 267.2500 372.0000 Du        
    833 ****       130.2500 267.2500 372.2500 Du        
    834 ****       130.2500 267.2500 372.5000 Du        
    835 ****       130.2500 267.2500 372.7500 Du        
    836 ****       130.2500 267.2500 373.0000 Du        
    837 ****       130.2500 267.2500 373.2500 Du        
    838 ****       130.2500 267.2500 373.5000 Du        
    839 ****       130.2500 267.2500 373.7500 Du        
    840 ****       130.2500 267.2500 374.0000 Du        
    841 ****       130.2500 267.5000 370.5000 Du        
    842 ****       130.2500 267.5000 370.7500 Du        
    843 ****       130.2500 267.5000 371.0000 Du        
    844 ****       130.2500 267.5000 371.2500 Du        
    845 ****       130.2500 267.5000 371.5000 Du        
    846 ****       130.2500 267.5000 371.7500 Du        
    847 ****       130.2500 267.5000 372.0000 Du        
    848 ****       130.2500 267.5000 372.2500 Du        
    849 ****       130.2500 267.5000 372.5000 Du        
    850 ****       130.2500 267.5000 372.7500 Du        
    851 ****       130.2500 267.5000 373.0000 Du        
    852 ****       130.2500 267.5000 373.2500 Du        
    853 ****       130.2500 267.5000 373.5000 Du        
    854 ****       130.2500 267.5000 373.7500 Du        
    855 ****       130.2500 267.5000 374.0000 Du        
    856 ****       130.2500 267.7500 370.5000 Du        
    857 ****       130.2500 267.7500 370.7500 Du        
    858 ****       130.2500 267.7500 371.0000 Du        
    859 ****       130.2500 267.7500 371.2500 Du        
    860 ****       130.2500 267.7500 371.5000 Du        
    861 ****       130.2500 267.7500 371.7500 Du        
    862 ****       130.2500 267.7500 372.0000 Du        
    863 ****       130.2500 267.7500 372.2500 Du        
    864 ****       130.2500 267.7500 372.5000 Du        
    865 ****       130.2500 267.7500 372.7500 Du        
    866 ****       130.2500 267.7500 373.0000 Du        
    867 ****       130.2500 267.7500 373.2500 Du        
    868 ****       130.2500 267.7500 373.5000 Du        
    869 ****       130.2500 267.7500 373.7500 Du        
    870 ****       130.2500 267.7500 374.0000 Du        
    871 ****       130.2500 268.0000 370.7500 Du        
    872 ****       130.2500 268.0000 371.0000 Du        
    873 ****       130.2500 268.0000 371.2500 Du        
    874 ****       130.2500 268.0000 371.5000 Du        
    875 ****       130.2500 268.0000 371.7500 Du        
    876 ****       130.2500 268.0000 372.0000 Du        
    877 ****       130.2500 268.0000 372.2500 Du        
    878 ****       130.2500 268.0000 372.5000 Du        
    879 ****       130.2500 268.0000 372.7500 Du        
    880 ****       130.2500 268.0000 373.0000 Du        
    881 ****       130.2500 268.0000 373.2500 Du        
    882 ****       130.2500 268.0000 373.5000 Du        
    883 ****       130.2500 268.0000 373.7500 Du        
    884 ****       130.2500 268.0000 374.0000 Du        
    885 ****       130.2500 268.2500 371.0000 Du        
    886 ****       130.2500 268.2500 371.2500 Du        
    887 ****       130.2500 268.2500 371.5000 Du        
    888 ****       130.2500 268.2500 371.7500 Du        
    889 ****       130.2500 268.2500 372.0000 Du        
    890 ****       130.2500 268.2500 372.2500 Du        
    891 ****       130.2500 268.2500 372.5000 Du        
    892 ****       130.2500 268.2500 372.7500 Du        
    893 ****       130.2500 268.2500 373.0000 Du        
    894 ****       130.2500 268.2500 373.2500 Du        
    895 ****       130.2500 268.5000 371.5000 Du        
    896 ****       130.2500 268.5000 371.7500 Du        
    897 ****       130.2500 268.5000 372.0000 Du        
    898 ****       130.5000 266.5000 373.7500 Du        
    899 ****       130.5000 266.5000 374.0000 Du        
    900 ****       130.5000 266.7500 373.0000 Du        
    901 ****       130.5000 266.7500 373.2500 Du        
    902 ****       130.5000 266.7500 373.5000 Du        
    903 ****       130.5000 266.7500 373.7500 Du        
    904 ****       130.5000 266.7500 374.0000 Du        
    905 ****       130.5000 267.0000 372.5000 Du        
    906 ****       130.5000 267.0000 372.7500 Du        
    907 ****       130.5000 267.0000 373.0000 Du        
    908 ****       130.5000 267.0000 373.2500 Du        
    909 ****       130.5000 267.0000 373.5000 Du        
    910 ****       130.5000 267.0000 373.7500 Du        
    911 ****       130.5000 267.0000 374.0000 Du        
    912 ****       130.5000 267.2500 371.7500 Du        
    913 ****       130.5000 267.2500 372.0000 Du        
    914 ****       130.5000 267.2500 372.2500 Du        
    915 ****       130.5000 267.2500 372.5000 Du        
    916 ****       130.5000 267.2500 372.7500 Du        
    917 ****       130.5000 267.2500 373.0000 Du        
    918 ****       130.5000 267.2500 373.2500 Du        
    919 ****       130.5000 267.2500 373.5000 Du        
    920 ****       130.5000 267.2500 373.7500 Du        
    921 ****       130.5000 267.2500 374.0000 Du        
    922 ****       130.5000 267.5000 371.5000 Du        
    923 ****       130.5000 267.5000 371.7500 Du        
    924 ****       130.5000 267.5000 372.0000 Du        
    925 ****       130.5000 267.5000 372.2500 Du        
    926 ****       130.5000 267.5000 372.5000 Du        
    927 ****       130.5000 267.5000 372.7500 Du        
    928 ****       130.5000 267.5000 373.0000 Du        
    929 ****       130.5000 267.5000 373.2500 Du        
    930 ****       130.5000 267.5000 373.5000 Du        
    931 ****       130.5000 267.5000 373.7500 Du        
    932 ****       130.5000 267.5000 374.0000 Du        
    933 ****       130.5000 267.7500 371.7500 Du        
    934 ****       130.5000 267.7500 372.0000 Du        
    935 ****       130.5000 267.7500 372.2500 Du        
    936 ****       130.5000 267.7500 372.5000 Du        
    937 ****       130.5000 267.7500 372.7500 Du        
    938 ****       130.5000 267.7500 373.0000 Du        
    939 ****       130.5000 267.7500 373.2500 Du        
    940 ****       130.5000 267.7500 373.5000 Du        
    941 ****       130.5000 267.7500 373.7500 Du        
    942 ****       130.5000 267.7500 374.0000 Du        
    943 ****       130.5000 268.0000 371.7500 Du        
    944 ****       130.5000 268.0000 372.0000 Du        
    945 ****       130.5000 268.0000 372.2500 Du        
    946 ****       130.5000 268.0000 372.5000 Du        
    947 ****       130.5000 268.0000 372.7500 Du        
    948 ****       130.5000 268.0000 373.0000 Du        
    949 ****       130.5000 268.0000 373.2500 Du        
    950 ****       130.5000 268.0000 373.5000 Du        
    951 ****       130.5000 268.0000 373.7500 Du        
    952 ****       130.5000 268.0000 374.0000 Du        
    953 ****       130.5000 268.2500 372.2500 Du        
    954 ****       130.5000 268.2500 372.5000 Du        
    955 ****       130.5000 268.2500 372.7500 Du        
    956 ****       130.5000 268.2500 373.0000 Du        
    957 ****       130.5000 268.2500 373.2500 Du        
    958 ****       130.5000 268.2500 373.5000 Du        
    959 ****       130.5000 268.2500 373.7500 Du        
    960 ****       130.5000 268.2500 374.0000 Du        
    961 ****       130.5000 268.5000 372.5000 Du        
    962 ****       130.5000 268.5000 372.7500 Du        
    963 ****       130.5000 268.5000 373.0000 Du        
    964 ****       130.5000 268.5000 373.2500 Du        
    965 ****       130.5000 268.5000 373.5000 Du        
    966 ****       130.5000 268.5000 373.7500 Du        
    967 ****       130.5000 268.5000 374.0000 Du        
    968 ****       130.7500 266.7500 373.5000 Du        
    969 ****       130.7500 266.7500 373.7500 Du        
    970 ****       130.7500 266.7500 374.0000 Du        
    971 ****       130.7500 267.0000 373.2500 Du        
    972 ****       130.7500 267.0000 373.5000 Du        
    973 ****       130.7500 267.0000 373.7500 Du        
    974 ****       130.7500 267.0000 374.0000 Du        
    975 ****       130.7500 267.2500 373.0000 Du        
    976 ****       130.7500 267.2500 373.2500 Du        
    977 ****       130.7500 267.2500 373.5000 Du        
    978 ****       130.7500 267.2500 373.7500 Du        
    979 ****       130.7500 267.2500 374.0000 Du        
    980 ****       130.7500 267.5000 372.7500 Du        
    981 ****       130.7500 267.5000 373.0000 Du        
    982 ****       130.7500 267.5000 373.2500 Du        
    983 ****       130.7500 267.5000 373.5000 Du        
    984 ****       130.7500 267.5000 373.7500 Du        
    985 ****       130.7500 267.5000 374.0000 Du        
    986 ****       130.7500 267.7500 372.7500 Du        
    987 ****       130.7500 267.7500 373.0000 Du        
    988 ****       130.7500 267.7500 373.2500 Du        
    989 ****       130.7500 267.7500 373.5000 Du        
    990 ****       130.7500 267.7500 373.7500 Du        
    991 ****       130.7500 267.7500 374.0000 Du        
    992 ****       130.7500 268.0000 372.7500 Du        
    993 ****       130.7500 268.0000 373.0000 Du        
    994 ****       130.7500 268.0000 373.2500 Du        
    995 ****       130.7500 268.0000 373.5000 Du        
    996 ****       130.7500 268.0000 373.7500 Du        
    997 ****       130.7500 268.0000 374.0000 Du        
    998 ****       130.7500 268.2500 372.7500 Du        
    999 ****       130.7500 268.2500 373.0000 Du        
   1000 ****       130.7500 268.2500 373.2500 Du        
   1001 ****       130.7500 268.2500 373.5000 Du        
   1002 ****       130.7500 268.2500 373.7500 Du        
   1003 ****       130.7500 268.2500 374.0000 Du        
   1004 ****       130.7500 268.5000 373.0000 Du        
   1005 ****       130.7500 268.5000 373.2500 Du        
   1006 ****       130.7500 268.5000 373.5000 Du        
   1007 ****       130.7500 268.5000 373.7500 Du        
   1008 ****       130.7500 268.5000 374.0000 Du        
   1009 ****       130.7500 268.7500 373.2500 Du        
   1010 ****       130.7500 268.7500 373.5000 Du        
   1011 ****       130.7500 268.7500 373.7500 Du        
   1012 ****       130.7500 268.7500 374.0000 Du        
   1013 ****       130.7500 269.0000 373.5000 Du        
   1014 ****       131.0000 266.7500 374.0000 Du        
   1015 ****       131.0000 267.0000 373.7500 Du        
   1016 ****       131.0000 267.0000 374.0000 Du        
   1017 ****       131.0000 267.2500 373.5000 Du        
   1018 ****       131.0000 267.2500 373.7500 Du        
   1019 ****       131.0000 267.2500 374.0000 Du        
   1020 ****       131.0000 267.5000 373.5000 Du        
   1021 ****       131.0000 267.5000 373.7500 Du        
   1022 ****       131.0000 267.5000 374.0000 Du        
   1023 ****       131.0000 267.7500 373.2500 Du        
   1024 ****       131.0000 267.7500 373.5000 Du        
   1025 ****       131.0000 267.7500 373.7500 Du        
   1026 ****       131.0000 267.7500 374.0000 Du        
   1027 ****       131.0000 268.0000 373.2500 Du        
   1028 ****       131.0000 268.0000 373.5000 Du        
   1029 ****       131.0000 268.0000 373.7500 Du        
   1030 ****       131.0000 268.0000 374.0000 Du        
   1031 ****       131.0000 268.2500 373.5000 Du        
   1032 ****       131.0000 268.2500 373.7500 Du        
   1033 ****       131.0000 268.2500 374.0000 Du        
   1034 ****       131.0000 268.5000 373.7500 Du        
   1035 ****       131.0000 268.5000 374.0000 Du        
   1036 ****       131.0000 268.7500 373.7500 Du        
   1037 ****       131.0000 268.7500 374.0000 Du        
   1038 ****       131.0000 269.0000 374.0000 Du        
   1039 ****       131.2500 267.0000 374.0000 Du        
   1040 ****       131.2500 267.2500 373.7500 Du        
   1041 ****       131.2500 267.2500 374.0000 Du        
   1042 ****       131.2500 267.5000 374.0000 Du        
   1043 ****       131.2500 267.7500 374.0000 Du        
   1044 ****       131.2500 268.0000 374.0000 Du        
