#       Name:                CT1002167954
#       Creating user name   hitesit
#       Creation time:       Sun Apr 16 02:23:54 2023


#       File generated by GOLD software.
#

@<TRIPOS>MOLECULE
CT1002167954|ligand_prepared|mol2|1|dock10
    29    30     1
SMALL
NO_CHARGES


@<TRIPOS>ATOM
      1 C1         129.2900 266.9176 371.5485 C.3            1 RES1               0.0000
      2 C2         129.1333 265.5984 370.7649 C.ar           1 RES1               0.0000
      3 C3         128.1294 266.9688 372.5377 C.2            1 RES1               0.0000
      4 C4         130.6651 266.8631 372.2049 C.2            1 RES1               0.0000
      5 C5         129.2345 268.1823 370.6602 C.3            1 RES1               0.0000
      6 C6         128.2351 265.5056 369.7060 C.ar           1 RES1               0.0000
      7 C7         129.8806 264.4687 371.0870 C.ar           1 RES1               0.0000
      8 N8         128.4097 266.7409 373.8528 N.am           1 RES1               0.0000
      9 O9         126.9798 267.1669 372.1644 O.2            1 RES1               0.0000
     10 N10        130.7219 266.8130 373.5731 N.am           1 RES1               0.0000
     11 O11        131.6995 266.8464 371.5491 O.2            1 RES1               0.0000
     12 C12        130.1241 269.3145 371.1490 C.3            1 RES1               0.0000
     13 C13        128.0912 264.3270 368.9929 C.ar           1 RES1               0.0000
     14 C14        129.7351 263.2909 370.3727 C.ar           1 RES1               0.0000
     15 C15        129.6558 266.7184 374.4257 C.2            1 RES1               0.0000
     16 C16        128.8413 263.2191 369.3254 C.ar           1 RES1               0.0000
     17 O17        129.7890 266.6222 375.6423 O.2            1 RES1               0.0000
     18 H18        129.5358 267.9114 369.6408 H              1 RES1               0.0000
     19 H19        128.1982 268.5400 370.6195 H              1 RES1               0.0000
     20 H20        127.6345 266.3663 369.4314 H              1 RES1               0.0000
     21 H21        130.5891 264.5017 371.9077 H              1 RES1               0.0000
     22 H22        127.6196 266.5715 374.4671 H              1 RES1               0.0000
     23 H23        131.6443 266.8497 373.9952 H              1 RES1               0.0000
     24 H24        130.0475 270.1770 370.4904 H              1 RES1               0.0000
     25 H25        129.8360 269.6264 372.1508 H              1 RES1               0.0000
     26 H26        131.1657 269.0015 371.1778 H              1 RES1               0.0000
     27 H27        127.3855 264.2753 368.1704 H              1 RES1               0.0000
     28 H28        130.3270 262.4212 370.6383 H              1 RES1               0.0000
     29 H29        128.7287 262.2960 368.7664 H              1 RES1               0.0000
@<TRIPOS>BOND
    1    1    2 1     
    2    1    3 1     
    3    1    4 1     
    4    1    5 1     
    5    2    6 ar    
    6    2    7 ar    
    7    3    8 1     
    8    3    9 2     
    9    4   10 1     
   10    4   11 2     
   11    5   12 1     
   12    5   18 1     
   13    5   19 1     
   14    6   13 ar    
   15    6   20 1     
   16    7   14 ar    
   17    7   21 1     
   18    8   15 1     
   19    8   22 1     
   20   10   15 1     
   21   10   23 1     
   22   12   24 1     
   23   12   25 1     
   24   12   26 1     
   25   13   16 ar    
   26   13   27 1     
   27   14   16 ar    
   28   14   28 1     
   29   15   17 2     
   30   16   29 1     
@<TRIPOS>SUBSTRUCTURE
      1 RES1           1
@<TRIPOS>SET
DONOR_HYDROGENS      STATIC     ATOMS    <user>   **** ""
2 22 23
ATOM$RED        STATIC     ATOMS    COLORGROUP SYSTEM
2 22 23
@<TRIPOS>COMMENT
> <Gold.Version>
2022.3.0

> <Gold.Id.Protein>
unknown|5uo4_clean|pdb

> <Gold.Protein.RotatedTorsions>
[ 13162 13141 13139 13136 ] final  -63.64 input   60.01 | X-H torsion

> <Gold.Protein.ActiveResidues>
 GLU351  PRO715  TRP716  ASN717  THR718  HIS719  VAL720  TRP721 

> <Gold.Protein.RotatedAtoms>
  130.6653  263.7295  366.4111 H   0  0  0  0  0  0  0  0  0  0  0  0  # atno 13162 bound_to 13141
  129.3322  264.6013  366.7442 LP  0  0  0  0  0  0  0  0  0  0  0  0  # atno 13530 bound_to 13141
  130.5527  264.5247  367.8264 LP  0  0  0  0  0  0  0  0  0  0  0  0  # atno 13531 bound_to 13141

> <Gold.Score>
     Fitness  S(hb_ext) S(vdw_ext)  S(hb_int)    S(int)      intcor
     24.95       0.66      21.35       0.00      -5.07      -0.76

> <Gold.Goldscore.Fitness>
24.9543

> <Gold.Goldscore.Internal.Vdw>
-4.0622

> <Gold.Goldscore.Internal.Torsion>
-1.7617

> <Gold.Goldscore.External.Vdw>
21.3504

> <Gold.Goldscore.Internal.HBond>
0.0000

> <Gold.Goldscore.External.HBond>
0.6629

> <Gold.Goldscore.Internal.Correction>
-0.7585

> <Gold.Goldscore.Hbonds>
donor molecule, donor type, donor heavy atom, donor atom, acceptor molecule, acceptor atom, score
      P1  H 13197 13223       L1    11  0.28
      L1  H    10    23       P1 13200  0.05

> <Gold.Goldscore.Internal.Vdw.Weighted>
-4.0622

> <Gold.Goldscore.Internal.Torsion.Weighted>
-1.7617

> <Gold.Goldscore.External.Vdw.Weighted>
29.3568

> <Gold.Goldscore.Internal.HBond.Weighted>
0.0000

> <Gold.Goldscore.External.HBond.Weighted>
0.6629

> <Gold.Goldscore.Internal.Correction.Weighted>
-0.7585

> <Gold.Rescore>
     Score     S(PLP)   S(hbond)     S(cho)   S(metal)  DE(clash)   DE(tors)     intcor
      8.22     -10.31       0.00       0.00       0.00       0.00       1.05       ----

> <Gold.PLP.Fitness>
8.2158

> <Gold.PLP.PLP>
-10.3088

> <Gold.PLP.part.hbond>
-5.3909

> <Gold.PLP.part.metal>
0.0000

> <Gold.PLP.part.buried>
21.3808

> <Gold.PLP.part.nonpolar>
-35.2286

> <Gold.PLP.part.repulsive>
8.1891

> <Gold.PLP.ligand.clash>
0.0000

> <Gold.PLP.ligand.torsion>
1.0465

> <Gold.PLP.Chemscore.Hbond>
0.0000

> <Gold.PLP.Chemscore.CHOScore>
0.0000

> <Gold.PLP.Chemscore.Metal>
0.0000

> <Gold.Chemscore.Hbonds>
donor molecule, donor type, donor heavy atom, donor atom, acceptor molecule, acceptor atom, score
      P1  H 13197 13223       L1    11  0.40

> <Gold.PLP.Chemscore.Internal.Correction>
   9.000000E+99

