#       Name:                CT1002167954
#       Creating user name   hitesit
#       Creation time:       Sun Apr 16 02:23:52 2023


#       File generated by GOLD software.
#

@<TRIPOS>MOLECULE
CT1002167954|ligand_prepared|mol2|1|dock7
    29    30     1
SMALL
NO_CHARGES


@<TRIPOS>ATOM
      1 C1         129.1224 264.5077 370.4940 C.3            1 RES1               0.0000
      2 C2         129.2776 265.7341 371.4164 C.ar           1 RES1               0.0000
      3 C3         127.7309 263.9424 370.7632 C.2            1 RES1               0.0000
      4 C4         129.3226 265.0164 369.0707 C.2            1 RES1               0.0000
      5 C5         130.1637 263.3944 370.7543 C.3            1 RES1               0.0000
      6 C6         129.3394 267.0182 370.8836 C.ar           1 RES1               0.0000
      7 C7         129.3574 265.5976 372.7997 C.ar           1 RES1               0.0000
      8 N8         126.7720 264.1459 369.8152 N.am           1 RES1               0.0000
      9 O9         127.4686 263.3613 371.8091 O.2            1 RES1               0.0000
     10 N10        128.2533 264.9677 368.2151 N.am           1 RES1               0.0000
     11 O11        130.3919 265.4744 368.6873 O.2            1 RES1               0.0000
     12 C12        130.2382 262.3537 369.6481 C.3            1 RES1               0.0000
     13 C13        129.4732 268.1260 371.7040 C.ar           1 RES1               0.0000
     14 C14        129.4914 266.7068 373.6184 C.ar           1 RES1               0.0000
     15 C15        126.9786 264.5840 368.5318 C.2            1 RES1               0.0000
     16 C16        129.5488 267.9711 373.0718 C.ar           1 RES1               0.0000
     17 O17        126.0571 264.6193 367.7214 O.2            1 RES1               0.0000
     18 H18        131.1519 263.8558 370.8722 H              1 RES1               0.0000
     19 H19        129.9142 262.8909 371.6965 H              1 RES1               0.0000
     20 H20        129.2840 267.1595 369.8093 H              1 RES1               0.0000
     21 H21        129.3154 264.6124 373.2517 H              1 RES1               0.0000
     22 H22        125.8124 263.9548 370.0854 H              1 RES1               0.0000
     23 H23        128.4233 265.2429 367.2530 H              1 RES1               0.0000
     24 H24        130.9836 261.5962 369.8807 H              1 RES1               0.0000
     25 H25        129.2786 261.8570 369.5206 H              1 RES1               0.0000
     26 H26        130.5089 262.8162 368.7012 H              1 RES1               0.0000
     27 H27        129.5193 269.1188 371.2688 H              1 RES1               0.0000
     28 H28        129.5511 266.5801 374.6943 H              1 RES1               0.0000
     29 H29        129.6532 268.8392 373.7143 H              1 RES1               0.0000
@<TRIPOS>BOND
    1    1    2 1     
    2    1    3 1     
    3    1    4 1     
    4    1    5 1     
    5    2    6 ar    
    6    2    7 ar    
    7    3    8 1     
    8    3    9 2     
    9    4   10 1     
   10    4   11 2     
   11    5   12 1     
   12    5   18 1     
   13    5   19 1     
   14    6   13 ar    
   15    6   20 1     
   16    7   14 ar    
   17    7   21 1     
   18    8   15 1     
   19    8   22 1     
   20   10   15 1     
   21   10   23 1     
   22   12   24 1     
   23   12   25 1     
   24   12   26 1     
   25   13   16 ar    
   26   13   27 1     
   27   14   16 ar    
   28   14   28 1     
   29   15   17 2     
   30   16   29 1     
@<TRIPOS>SUBSTRUCTURE
      1 RES1           1
@<TRIPOS>SET
DONOR_HYDROGENS      STATIC     ATOMS    <user>   **** ""
2 22 23
ATOM$RED        STATIC     ATOMS    COLORGROUP SYSTEM
2 22 23
@<TRIPOS>COMMENT
> <Gold.Version>
2022.3.0

> <Gold.Id.Protein>
unknown|5uo4_clean|pdb

> <Gold.Protein.RotatedTorsions>
[ 13162 13141 13139 13136 ] final  -75.96 input   60.01 | X-H torsion

> <Gold.Protein.ActiveResidues>
 GLU351  PRO715  TRP716  ASN717  THR718  HIS719  VAL720  TRP721 

> <Gold.Protein.RotatedAtoms>
  130.5050  263.7517  366.2921 H   0  0  0  0  0  0  0  0  0  0  0  0  # atno 13162 bound_to 13141
  129.3377  264.6927  366.9246 LP  0  0  0  0  0  0  0  0  0  0  0  0  # atno 13530 bound_to 13141
  130.7087  264.4110  367.7658 LP  0  0  0  0  0  0  0  0  0  0  0  0  # atno 13531 bound_to 13141

> <Gold.Score>
     Fitness  S(hb_ext) S(vdw_ext)  S(hb_int)    S(int)      intcor
      8.72       0.00       8.72       0.00      -3.27      -0.76

> <Gold.Goldscore.Fitness>
8.7170

> <Gold.Goldscore.Internal.Vdw>
-3.3569

> <Gold.Goldscore.Internal.Torsion>
-0.6746

> <Gold.Goldscore.External.Vdw>
8.7200

> <Gold.Goldscore.Internal.HBond>
0.0000

> <Gold.Goldscore.External.HBond>
0.0000

> <Gold.Goldscore.Internal.Correction>
-0.7585

> <Gold.Goldscore.Internal.Vdw.Weighted>
-3.3569

> <Gold.Goldscore.Internal.Torsion.Weighted>
-0.6746

> <Gold.Goldscore.External.Vdw.Weighted>
11.9900

> <Gold.Goldscore.Internal.HBond.Weighted>
0.0000

> <Gold.Goldscore.External.HBond.Weighted>
0.0000

> <Gold.Goldscore.Internal.Correction.Weighted>
-0.7585

> <Gold.Rescore>
     Score     S(PLP)   S(hbond)     S(cho)   S(metal)  DE(clash)   DE(tors)     intcor
     -9.39       7.98       0.38       0.00       0.00       1.81       0.38       ----

> <Gold.PLP.Fitness>
-9.3915

> <Gold.PLP.PLP>
7.9782

> <Gold.PLP.part.hbond>
-1.1708

> <Gold.PLP.part.metal>
0.0000

> <Gold.PLP.part.buried>
40.2139

> <Gold.PLP.part.nonpolar>
-33.7229

> <Gold.PLP.part.repulsive>
3.0534

> <Gold.PLP.ligand.clash>
1.8056

> <Gold.PLP.ligand.torsion>
0.3799

> <Gold.PLP.Chemscore.Hbond>
0.3840

> <Gold.PLP.Chemscore.CHOScore>
0.0000

> <Gold.PLP.Chemscore.Metal>
0.0000

> <Gold.Chemscore.Hbonds>
donor molecule, donor type, donor heavy atom, donor atom, acceptor molecule, acceptor atom, score
      L1  H    10    23       P1 13141  0.08

> <Gold.PLP.Chemscore.Internal.Correction>
   9.000000E+99

