#       Name:                CT1002167954
#       Creating user name   hitesit
#       Creation time:       Sun Apr 16 02:23:51 2023


#       File generated by GOLD software.
#

@<TRIPOS>MOLECULE
CT1002167954|ligand_prepared|mol2|1|dock5
    29    30     1
SMALL
NO_CHARGES


@<TRIPOS>ATOM
      1 C1         129.1555 264.7038 370.2498 C.3            1 RES1               0.0000
      2 C2         129.3209 265.8524 371.2656 C.ar           1 RES1               0.0000
      3 C3         127.8218 264.0361 370.5714 C.2            1 RES1               0.0000
      4 C4         129.2130 265.3450 368.8677 C.2            1 RES1               0.0000
      5 C5         130.2710 263.6355 370.3275 C.3            1 RES1               0.0000
      6 C6         129.3629 267.1761 370.8379 C.ar           1 RES1               0.0000
      7 C7         129.4298 265.6048 372.6314 C.ar           1 RES1               0.0000
      8 N8         126.7798 264.2641 369.7215 N.am           1 RES1               0.0000
      9 O9         127.6757 263.3519 371.5768 O.2            1 RES1               0.0000
     10 N10        128.0819 265.3076 368.0950 N.am           1 RES1               0.0000
     11 O11        130.2225 265.8968 368.4474 O.2            1 RES1               0.0000
     12 C12        129.8909 262.3051 369.6968 C.3            1 RES1               0.0000
     13 C13        129.5056 268.2147 371.7430 C.ar           1 RES1               0.0000
     14 C14        129.5727 266.6449 373.5348 C.ar           1 RES1               0.0000
     15 C15        126.8588 264.8233 368.4714 C.2            1 RES1               0.0000
     16 C16        129.6102 267.9500 373.0919 C.ar           1 RES1               0.0000
     17 O17        125.8741 264.8743 367.7400 O.2            1 RES1               0.0000
     18 H18        131.1658 264.0220 369.8242 H              1 RES1               0.0000
     19 H19        130.5255 263.4668 371.3812 H              1 RES1               0.0000
     20 H20        129.2846 267.4037 369.7800 H              1 RES1               0.0000
     21 H21        129.4040 264.5858 373.0025 H              1 RES1               0.0000
     22 H22        125.8566 263.9938 370.0454 H              1 RES1               0.0000
     23 H23        128.1588 265.6748 367.1518 H              1 RES1               0.0000
     24 H24        130.7084 261.5919 369.7787 H              1 RES1               0.0000
     25 H25        129.0193 261.8795 370.1898 H              1 RES1               0.0000
     26 H26        129.6558 262.4315 368.6420 H              1 RES1               0.0000
     27 H27        129.5359 269.2400 371.3892 H              1 RES1               0.0000
     28 H28        129.6553 266.4319 374.5955 H              1 RES1               0.0000
     29 H29        129.7216 268.7638 373.8007 H              1 RES1               0.0000
@<TRIPOS>BOND
    1    1    2 1     
    2    1    3 1     
    3    1    4 1     
    4    1    5 1     
    5    2    6 ar    
    6    2    7 ar    
    7    3    8 1     
    8    3    9 2     
    9    4   10 1     
   10    4   11 2     
   11    5   12 1     
   12    5   18 1     
   13    5   19 1     
   14    6   13 ar    
   15    6   20 1     
   16    7   14 ar    
   17    7   21 1     
   18    8   15 1     
   19    8   22 1     
   20   10   15 1     
   21   10   23 1     
   22   12   24 1     
   23   12   25 1     
   24   12   26 1     
   25   13   16 ar    
   26   13   27 1     
   27   14   16 ar    
   28   14   28 1     
   29   15   17 2     
   30   16   29 1     
@<TRIPOS>SUBSTRUCTURE
      1 RES1           1
@<TRIPOS>SET
DONOR_HYDROGENS      STATIC     ATOMS    <user>   **** ""
2 22 23
ATOM$RED        STATIC     ATOMS    COLORGROUP SYSTEM
2 22 23
@<TRIPOS>COMMENT
> <Gold.Version>
2022.3.0

> <Gold.Id.Protein>
unknown|5uo4_clean|pdb

> <Gold.Protein.RotatedTorsions>
[ 13162 13141 13139 13136 ] final  -77.44 input   60.01 | X-H torsion

> <Gold.Protein.ActiveResidues>
 GLU351  PRO715  TRP716  ASN717  THR718  HIS719  VAL720  TRP721 

> <Gold.Protein.RotatedAtoms>
  130.4845  263.7561  366.2798 H   0  0  0  0  0  0  0  0  0  0  0  0  # atno 13162 bound_to 13141
  129.3410  264.7025  366.9467 LP  0  0  0  0  0  0  0  0  0  0  0  0  # atno 13530 bound_to 13141
  130.7260  264.3968  367.7560 LP  0  0  0  0  0  0  0  0  0  0  0  0  # atno 13531 bound_to 13141

> <Gold.Score>
     Fitness  S(hb_ext) S(vdw_ext)  S(hb_int)    S(int)      intcor
     12.81       0.00      13.92       0.00      -6.34      -0.76

> <Gold.Goldscore.Fitness>
12.8062

> <Gold.Goldscore.Internal.Vdw>
-6.1552

> <Gold.Goldscore.Internal.Torsion>
-0.9416

> <Gold.Goldscore.External.Vdw>
13.9233

> <Gold.Goldscore.Internal.HBond>
0.0000

> <Gold.Goldscore.External.HBond>
0.0000

> <Gold.Goldscore.Internal.Correction>
-0.7585

> <Gold.Goldscore.Internal.Vdw.Weighted>
-6.1552

> <Gold.Goldscore.Internal.Torsion.Weighted>
-0.9416

> <Gold.Goldscore.External.Vdw.Weighted>
19.1445

> <Gold.Goldscore.Internal.HBond.Weighted>
0.0000

> <Gold.Goldscore.External.HBond.Weighted>
0.0000

> <Gold.Goldscore.Internal.Correction.Weighted>
-0.7585

> <Gold.Rescore>
     Score     S(PLP)   S(hbond)     S(cho)   S(metal)  DE(clash)   DE(tors)     intcor
     -7.64       5.01       0.09       0.00       0.00       1.89       0.50       ----

> <Gold.PLP.Fitness>
-7.6378

> <Gold.PLP.PLP>
5.0108

> <Gold.PLP.part.hbond>
1.3812

> <Gold.PLP.part.metal>
0.0000

> <Gold.PLP.part.buried>
36.4233

> <Gold.PLP.part.nonpolar>
-34.2110

> <Gold.PLP.part.repulsive>
2.2352

> <Gold.PLP.ligand.clash>
1.8920

> <Gold.PLP.ligand.torsion>
0.5050

> <Gold.PLP.Chemscore.Hbond>
0.0916

> <Gold.PLP.Chemscore.CHOScore>
0.0000

> <Gold.PLP.Chemscore.Metal>
0.0000

> <Gold.PLP.Chemscore.Internal.Correction>
   9.000000E+99

