#       Name:                CT1002167954
#       Creating user name   hitesit
#       Creation time:       Sun Apr 16 02:23:51 2023


#       File generated by GOLD software.
#

@<TRIPOS>MOLECULE
CT1002167954|ligand_prepared|mol2|1|dock4
    29    30     1
SMALL
NO_CHARGES


@<TRIPOS>ATOM
      1 C1         128.8399 266.3204 370.6986 C.3            1 RES1               0.0000
      2 C2         129.5029 267.2608 371.7257 C.ar           1 RES1               0.0000
      3 C3         127.3470 266.6337 370.7321 C.2            1 RES1               0.0000
      4 C4         129.5072 266.6131 369.3593 C.2            1 RES1               0.0000
      5 C5         129.0337 264.8182 371.0108 C.3            1 RES1               0.0000
      6 C6         130.2305 268.3699 371.3047 C.ar           1 RES1               0.0000
      7 C7         129.3936 267.0342 373.0951 C.ar           1 RES1               0.0000
      8 N8         126.8233 267.3277 369.6813 N.am           1 RES1               0.0000
      9 O9         126.6475 266.3113 371.6845 O.2            1 RES1               0.0000
     10 N10        128.7392 267.1609 368.3654 N.am           1 RES1               0.0000
     11 O11        130.6951 266.3897 369.1611 O.2            1 RES1               0.0000
     12 C12        128.2755 263.8939 370.0711 C.3            1 RES1               0.0000
     13 C13        130.8249 269.2232 372.2195 C.ar           1 RES1               0.0000
     14 C14        129.9889 267.8888 374.0083 C.ar           1 RES1               0.0000
     15 C15        127.4350 267.5598 368.4756 C.2            1 RES1               0.0000
     16 C16        130.7042 268.9835 373.5717 C.ar           1 RES1               0.0000
     17 O17        126.8273 268.0951 367.5529 O.2            1 RES1               0.0000
     18 H18        130.1031 264.5806 370.9530 H              1 RES1               0.0000
     19 H19        128.7025 264.6256 372.0387 H              1 RES1               0.0000
     20 H20        130.3385 268.5732 370.2445 H              1 RES1               0.0000
     21 H21        128.8366 266.1786 373.4615 H              1 RES1               0.0000
     22 H22        125.8907 267.7093 369.8032 H              1 RES1               0.0000
     23 H23        129.1806 267.2823 367.4595 H              1 RES1               0.0000
     24 H24        128.4459 262.8521 370.3341 H              1 RES1               0.0000
     25 H25        127.2057 264.0855 370.1216 H              1 RES1               0.0000
     26 H26        128.5979 264.0409 369.0423 H              1 RES1               0.0000
     27 H27        131.3879 270.0827 371.8707 H              1 RES1               0.0000
     28 H28        129.8918 267.6959 375.0716 H              1 RES1               0.0000
     29 H29        131.1695 269.6524 374.2882 H              1 RES1               0.0000
@<TRIPOS>BOND
    1    1    2 1     
    2    1    3 1     
    3    1    4 1     
    4    1    5 1     
    5    2    6 ar    
    6    2    7 ar    
    7    3    8 1     
    8    3    9 2     
    9    4   10 1     
   10    4   11 2     
   11    5   12 1     
   12    5   18 1     
   13    5   19 1     
   14    6   13 ar    
   15    6   20 1     
   16    7   14 ar    
   17    7   21 1     
   18    8   15 1     
   19    8   22 1     
   20   10   15 1     
   21   10   23 1     
   22   12   24 1     
   23   12   25 1     
   24   12   26 1     
   25   13   16 ar    
   26   13   27 1     
   27   14   16 ar    
   28   14   28 1     
   29   15   17 2     
   30   16   29 1     
@<TRIPOS>SUBSTRUCTURE
      1 RES1           1
@<TRIPOS>SET
DONOR_HYDROGENS      STATIC     ATOMS    <user>   **** ""
2 22 23
ATOM$RED        STATIC     ATOMS    COLORGROUP SYSTEM
2 22 23
@<TRIPOS>COMMENT
> <Gold.Version>
2022.3.0

> <Gold.Id.Protein>
unknown|5uo4_clean|pdb

> <Gold.Protein.RotatedTorsions>
[ 13162 13141 13139 13136 ] final  161.69 input   60.01 | X-H torsion

> <Gold.Protein.ActiveResidues>
 GLU351  PRO715  TRP716  ASN717  THR718  HIS719  VAL720  TRP721 

> <Gold.Protein.RotatedAtoms>
  129.3502  264.7076  366.9587 H   0  0  0  0  0  0  0  0  0  0  0  0  # atno 13162 bound_to 13141
  130.7358  264.3886  367.7501 LP  0  0  0  0  0  0  0  0  0  0  0  0  # atno 13530 bound_to 13141
  130.4731  263.7528  366.2691 LP  0  0  0  0  0  0  0  0  0  0  0  0  # atno 13531 bound_to 13141

> <Gold.Score>
     Fitness  S(hb_ext) S(vdw_ext)  S(hb_int)    S(int)      intcor
     35.62       0.00      27.95       0.00      -2.80      -0.76

> <Gold.Goldscore.Fitness>
35.6230

> <Gold.Goldscore.Internal.Vdw>
-3.1488

> <Gold.Goldscore.Internal.Torsion>
-0.4147

> <Gold.Goldscore.External.Vdw>
27.9476

> <Gold.Goldscore.Internal.HBond>
0.0000

> <Gold.Goldscore.External.HBond>
0.0000

> <Gold.Goldscore.Internal.Correction>
-0.7585

> <Gold.Goldscore.Internal.Vdw.Weighted>
-3.1488

> <Gold.Goldscore.Internal.Torsion.Weighted>
-0.4147

> <Gold.Goldscore.External.Vdw.Weighted>
38.4279

> <Gold.Goldscore.Internal.HBond.Weighted>
0.0000

> <Gold.Goldscore.External.HBond.Weighted>
0.0000

> <Gold.Goldscore.Internal.Correction.Weighted>
-0.7585

> <Gold.Rescore>
     Score     S(PLP)   S(hbond)     S(cho)   S(metal)  DE(clash)   DE(tors)     intcor
     12.27     -13.97       0.30       0.00       0.00       0.00       1.31       ----

> <Gold.PLP.Fitness>
12.2740

> <Gold.PLP.PLP>
-13.9745

> <Gold.PLP.part.hbond>
-3.9672

> <Gold.PLP.part.metal>
0.0000

> <Gold.PLP.part.buried>
16.6527

> <Gold.PLP.part.nonpolar>
-38.4393

> <Gold.PLP.part.repulsive>
11.7740

> <Gold.PLP.ligand.clash>
0.0000

> <Gold.PLP.ligand.torsion>
1.3063

> <Gold.PLP.Chemscore.Hbond>
0.3040

> <Gold.PLP.Chemscore.CHOScore>
0.0000

> <Gold.PLP.Chemscore.Metal>
0.0000

> <Gold.PLP.Chemscore.Internal.Correction>
   9.000000E+99

