#       Name:                CT1002167954
#       Creating user name   hitesit
#       Creation time:       Sun Apr 16 02:23:53 2023


#       File generated by GOLD software.
#

@<TRIPOS>MOLECULE
CT1002167954|ligand_prepared|mol2|1|dock8
    29    30     1
SMALL
NO_CHARGES


@<TRIPOS>ATOM
      1 C1         128.6511 266.3443 370.3630 C.3            1 RES1               0.0000
      2 C2         127.5560 266.6476 369.3201 C.ar           1 RES1               0.0000
      3 C3         127.9953 265.4761 371.4328 C.2            1 RES1               0.0000
      4 C4         129.7804 265.6531 369.6070 C.2            1 RES1               0.0000
      5 C5         129.2330 267.6056 371.0427 C.3            1 RES1               0.0000
      6 C6         127.0062 265.6254 368.5522 C.ar           1 RES1               0.0000
      7 C7         127.0842 267.9417 369.1169 C.ar           1 RES1               0.0000
      8 N8         128.3146 264.1504 371.4539 N.am           1 RES1               0.0000
      9 O9         127.1802 265.9398 372.2208 O.2            1 RES1               0.0000
     10 N10        130.0526 264.3457 369.9140 N.am           1 RES1               0.0000
     11 O11        130.4260 266.2238 368.7365 O.2            1 RES1               0.0000
     12 C12        130.3750 267.3129 372.0031 C.3            1 RES1               0.0000
     13 C13        126.0186 265.8870 367.6171 C.ar           1 RES1               0.0000
     14 C14        126.0966 268.2011 368.1811 C.ar           1 RES1               0.0000
     15 C15        129.3508 263.5538 370.7815 C.2            1 RES1               0.0000
     16 C16        125.5628 267.1747 367.4312 C.ar           1 RES1               0.0000
     17 O17        129.6229 262.3707 370.9642 O.2            1 RES1               0.0000
     18 H18        129.5922 268.2915 370.2656 H              1 RES1               0.0000
     19 H19        128.4305 268.1126 371.5925 H              1 RES1               0.0000
     20 H20        127.3540 264.6061 368.6827 H              1 RES1               0.0000
     21 H21        127.4903 268.7650 369.6947 H              1 RES1               0.0000
     22 H22        127.7288 263.5469 372.0221 H              1 RES1               0.0000
     23 H23        130.8527 263.9237 369.4534 H              1 RES1               0.0000
     24 H24        130.7463 268.2316 372.4522 H              1 RES1               0.0000
     25 H25        130.0463 266.6532 372.8035 H              1 RES1               0.0000
     26 H26        131.2012 266.8311 371.4845 H              1 RES1               0.0000
     27 H27        125.6027 265.0759 367.0285 H              1 RES1               0.0000
     28 H28        125.7414 269.2162 368.0377 H              1 RES1               0.0000
     29 H29        124.7888 267.3793 366.6988 H              1 RES1               0.0000
@<TRIPOS>BOND
    1    1    2 1     
    2    1    3 1     
    3    1    4 1     
    4    1    5 1     
    5    2    6 ar    
    6    2    7 ar    
    7    3    8 1     
    8    3    9 2     
    9    4   10 1     
   10    4   11 2     
   11    5   12 1     
   12    5   18 1     
   13    5   19 1     
   14    6   13 ar    
   15    6   20 1     
   16    7   14 ar    
   17    7   21 1     
   18    8   15 1     
   19    8   22 1     
   20   10   15 1     
   21   10   23 1     
   22   12   24 1     
   23   12   25 1     
   24   12   26 1     
   25   13   16 ar    
   26   13   27 1     
   27   14   16 ar    
   28   14   28 1     
   29   15   17 2     
   30   16   29 1     
@<TRIPOS>SUBSTRUCTURE
      1 RES1           1
@<TRIPOS>SET
DONOR_HYDROGENS      STATIC     ATOMS    <user>   **** ""
2 22 23
ATOM$RED        STATIC     ATOMS    COLORGROUP SYSTEM
2 22 23
@<TRIPOS>COMMENT
> <Gold.Version>
2022.3.0

> <Gold.Id.Protein>
unknown|5uo4_clean|pdb

> <Gold.Protein.RotatedTorsions>
[ 13162 13141 13139 13136 ] final   31.15 input   60.01 | X-H torsion

> <Gold.Protein.ActiveResidues>
 GLU351  PRO715  TRP716  ASN717  THR718  HIS719  VAL720  TRP721 

> <Gold.Protein.RotatedAtoms>
  130.8426  264.2882  367.6585 H   0  0  0  0  0  0  0  0  0  0  0  0  # atno 13162 bound_to 13141
  130.3213  263.7955  366.1979 LP  0  0  0  0  0  0  0  0  0  0  0  0  # atno 13530 bound_to 13141
  129.3852  264.7681  367.1167 LP  0  0  0  0  0  0  0  0  0  0  0  0  # atno 13531 bound_to 13141

> <Gold.Score>
     Fitness  S(hb_ext) S(vdw_ext)  S(hb_int)    S(int)      intcor
     35.16       0.56      25.18       0.00      -0.03      -0.76

> <Gold.Goldscore.Fitness>
35.1600

> <Gold.Goldscore.Internal.Vdw>
-0.3962

> <Gold.Goldscore.Internal.Torsion>
-0.3890

> <Gold.Goldscore.External.Vdw>
25.1799

> <Gold.Goldscore.Internal.HBond>
0.0000

> <Gold.Goldscore.External.HBond>
0.5644

> <Gold.Goldscore.Internal.Correction>
-0.7585

> <Gold.Goldscore.Hbonds>
donor molecule, donor type, donor heavy atom, donor atom, acceptor molecule, acceptor atom, score
      L1  H    10    23       P1 13034  0.28

> <Gold.Goldscore.Internal.Vdw.Weighted>
-0.3962

> <Gold.Goldscore.Internal.Torsion.Weighted>
-0.3890

> <Gold.Goldscore.External.Vdw.Weighted>
34.6223

> <Gold.Goldscore.Internal.HBond.Weighted>
0.0000

> <Gold.Goldscore.External.HBond.Weighted>
0.5644

> <Gold.Goldscore.Internal.Correction.Weighted>
-0.7585

> <Gold.Rescore>
     Score     S(PLP)   S(hbond)     S(cho)   S(metal)  DE(clash)   DE(tors)     intcor
    -15.43      14.66       0.00       0.00       0.00       0.00       0.39       ----

> <Gold.PLP.Fitness>
-15.4271

> <Gold.PLP.PLP>
14.6558

> <Gold.PLP.part.hbond>
-4.5303

> <Gold.PLP.part.metal>
0.0000

> <Gold.PLP.part.buried>
37.1664

> <Gold.PLP.part.nonpolar>
-32.5547

> <Gold.PLP.part.repulsive>
14.7574

> <Gold.PLP.ligand.clash>
0.0000

> <Gold.PLP.ligand.torsion>
0.3856

> <Gold.PLP.Chemscore.Hbond>
0.0000

> <Gold.PLP.Chemscore.CHOScore>
0.0000

> <Gold.PLP.Chemscore.Metal>
0.0000

> <Gold.PLP.Chemscore.Internal.Correction>
   9.000000E+99

