#       Name:                CT1002167954
#       Creating user name   hitesit
#       Creation time:       Sun Apr 16 02:23:52 2023


#       File generated by GOLD software.
#

@<TRIPOS>MOLECULE
CT1002167954|ligand_prepared|mol2|1|dock6
    29    30     1
SMALL
NO_CHARGES


@<TRIPOS>ATOM
      1 C1         128.8672 265.7466 371.4776 C.3            1 RES1               0.0000
      2 C2         129.5748 267.0454 371.9147 C.ar           1 RES1               0.0000
      3 C3         127.8320 266.1533 370.4330 C.2            1 RES1               0.0000
      4 C4         129.9586 264.8244 370.9456 C.2            1 RES1               0.0000
      5 C5         128.1411 265.0128 372.6291 C.3            1 RES1               0.0000
      6 C6         130.2141 267.1235 373.1484 C.ar           1 RES1               0.0000
      7 C7         129.5991 268.1709 371.0953 C.ar           1 RES1               0.0000
      8 N8         128.0972 265.8516 369.1298 N.am           1 RES1               0.0000
      9 O9         126.8170 266.7645 370.7436 O.2            1 RES1               0.0000
     10 N10        129.9355 264.5039 369.6135 N.am           1 RES1               0.0000
     11 O11        130.8480 264.3858 371.6645 O.2            1 RES1               0.0000
     12 C12        127.5747 263.6585 372.2324 C.3            1 RES1               0.0000
     13 C13        130.8569 268.2836 373.5474 C.ar           1 RES1               0.0000
     14 C14        130.2424 269.3302 371.4964 C.ar           1 RES1               0.0000
     15 C15        129.0721 265.0004 368.6753 C.2            1 RES1               0.0000
     16 C16        130.8719 269.3875 372.7216 C.ar           1 RES1               0.0000
     17 O17        129.1485 264.7068 367.4857 O.2            1 RES1               0.0000
     18 H18        128.8458 264.8718 373.4578 H              1 RES1               0.0000
     19 H19        127.3214 265.6462 372.9900 H              1 RES1               0.0000
     20 H20        130.2107 266.2657 373.8126 H              1 RES1               0.0000
     21 H21        129.1096 268.1491 370.1276 H              1 RES1               0.0000
     22 H22        127.5171 266.3006 368.4282 H              1 RES1               0.0000
     23 H23        130.6258 263.8330 369.2915 H              1 RES1               0.0000
     24 H24        127.0760 263.1867 373.0764 H              1 RES1               0.0000
     25 H25        126.8510 263.7640 371.4269 H              1 RES1               0.0000
     26 H26        128.3663 262.9942 371.8919 H              1 RES1               0.0000
     27 H27        131.3496 268.3240 374.5132 H              1 RES1               0.0000
     28 H28        130.2511 270.1967 370.8435 H              1 RES1               0.0000
     29 H29        131.3758 270.2960 373.0343 H              1 RES1               0.0000
@<TRIPOS>BOND
    1    1    2 1     
    2    1    3 1     
    3    1    4 1     
    4    1    5 1     
    5    2    6 ar    
    6    2    7 ar    
    7    3    8 1     
    8    3    9 2     
    9    4   10 1     
   10    4   11 2     
   11    5   12 1     
   12    5   18 1     
   13    5   19 1     
   14    6   13 ar    
   15    6   20 1     
   16    7   14 ar    
   17    7   21 1     
   18    8   15 1     
   19    8   22 1     
   20   10   15 1     
   21   10   23 1     
   22   12   24 1     
   23   12   25 1     
   24   12   26 1     
   25   13   16 ar    
   26   13   27 1     
   27   14   16 ar    
   28   14   28 1     
   29   15   17 2     
   30   16   29 1     
@<TRIPOS>SUBSTRUCTURE
      1 RES1           1
@<TRIPOS>SET
DONOR_HYDROGENS      STATIC     ATOMS    <user>   **** ""
2 22 23
ATOM$RED        STATIC     ATOMS    COLORGROUP SYSTEM
2 22 23
@<TRIPOS>COMMENT
> <Gold.Version>
2022.3.0

> <Gold.Id.Protein>
unknown|5uo4_clean|pdb

> <Gold.Protein.RotatedTorsions>
[ 13162 13141 13139 13136 ] final  -58.07 input   60.01 | X-H torsion

> <Gold.Protein.ActiveResidues>
 GLU351  PRO715  TRP716  ASN717  THR718  HIS719  VAL720  TRP721 

> <Gold.Protein.RotatedAtoms>
  130.7310  263.7279  366.4740 H   0  0  0  0  0  0  0  0  0  0  0  0  # atno 13162 bound_to 13141
  129.3427  264.5549  366.6659 LP  0  0  0  0  0  0  0  0  0  0  0  0  # atno 13530 bound_to 13141
  130.4762  264.5728  367.8413 LP  0  0  0  0  0  0  0  0  0  0  0  0  # atno 13531 bound_to 13141

> <Gold.Score>
     Fitness  S(hb_ext) S(vdw_ext)  S(hb_int)    S(int)      intcor
     17.23       1.16      14.88       0.00      -4.39      -0.76

> <Gold.Goldscore.Fitness>
17.2309

> <Gold.Goldscore.Internal.Vdw>
-4.7141

> <Gold.Goldscore.Internal.Torsion>
-0.4304

> <Gold.Goldscore.External.Vdw>
14.8759

> <Gold.Goldscore.Internal.HBond>
0.0000

> <Gold.Goldscore.External.HBond>
1.1626

> <Gold.Goldscore.Internal.Correction>
-0.7585

> <Gold.Goldscore.Hbonds>
donor molecule, donor type, donor heavy atom, donor atom, acceptor molecule, acceptor atom, score
      P1  H 13170 13195       L1    11  0.22
      L1  H    10    23       P1 13034  0.36

> <Gold.Goldscore.Internal.Vdw.Weighted>
-4.7141

> <Gold.Goldscore.Internal.Torsion.Weighted>
-0.4304

> <Gold.Goldscore.External.Vdw.Weighted>
20.4543

> <Gold.Goldscore.Internal.HBond.Weighted>
0.0000

> <Gold.Goldscore.External.HBond.Weighted>
1.1626

> <Gold.Goldscore.Internal.Correction.Weighted>
-0.7585

> <Gold.Rescore>
     Score     S(PLP)   S(hbond)     S(cho)   S(metal)  DE(clash)   DE(tors)     intcor
     -2.75       4.86       1.41       0.00       0.00       0.00       1.06       ----

> <Gold.PLP.Fitness>
-2.7521

> <Gold.PLP.PLP>
4.8601

> <Gold.PLP.part.hbond>
-6.7838

> <Gold.PLP.part.metal>
0.0000

> <Gold.PLP.part.buried>
29.9282

> <Gold.PLP.part.nonpolar>
-27.4606

> <Gold.PLP.part.repulsive>
8.5264

> <Gold.PLP.ligand.clash>
0.0000

> <Gold.PLP.ligand.torsion>
1.0580

> <Gold.PLP.Chemscore.Hbond>
1.4080

> <Gold.PLP.Chemscore.CHOScore>
0.0000

> <Gold.PLP.Chemscore.Metal>
0.0000

> <Gold.Chemscore.Hbonds>
donor molecule, donor type, donor heavy atom, donor atom, acceptor molecule, acceptor atom, score
      P1  H 13170 13195       L1    11  0.10

> <Gold.PLP.Chemscore.Internal.Correction>
   9.000000E+99

