#       Name:                CT1002167954
#       Creating user name   hitesit
#       Creation time:       Sun Apr 16 02:23:50 2023


#       File generated by GOLD software.
#

@<TRIPOS>MOLECULE
CT1002167954|ligand_prepared|mol2|1|dock3
    29    30     1
SMALL
NO_CHARGES


@<TRIPOS>ATOM
      1 C1         128.7814 266.2929 370.2137 C.3            1 RES1               0.0000
      2 C2         129.4740 266.9375 371.4317 C.ar           1 RES1               0.0000
      3 C3         129.8714 265.5551 369.4418 C.2            1 RES1               0.0000
      4 C4         127.6922 265.3846 370.7736 C.2            1 RES1               0.0000
      5 C5         128.1113 267.3128 369.2638 C.3            1 RES1               0.0000
      6 C6         130.0357 268.2073 371.3376 C.ar           1 RES1               0.0000
      7 C7         129.5567 266.2769 372.6546 C.ar           1 RES1               0.0000
      8 N8         129.8880 264.1936 369.5176 N.am           1 RES1               0.0000
      9 O9         130.7270 266.1607 368.8082 O.2            1 RES1               0.0000
     10 N10        127.8213 264.0339 370.5819 N.am           1 RES1               0.0000
     11 O11        126.7320 265.8251 371.3935 O.2            1 RES1               0.0000
     12 C12        127.1788 266.6793 368.2434 C.3            1 RES1               0.0000
     13 C13        130.6549 268.7967 372.4272 C.ar           1 RES1               0.0000
     14 C14        130.1767 266.8681 373.7430 C.ar           1 RES1               0.0000
     15 C15        128.8854 263.3949 370.0060 C.2            1 RES1               0.0000
     16 C16        130.7255 268.1279 373.6307 C.ar           1 RES1               0.0000
     17 O17        128.9539 262.1723 369.9186 O.2            1 RES1               0.0000
     18 H18        127.5413 268.0327 369.8640 H              1 RES1               0.0000
     19 H19        128.8943 267.8662 368.7308 H              1 RES1               0.0000
     20 H20        129.9920 268.7479 370.3980 H              1 RES1               0.0000
     21 H21        129.1329 265.2847 372.7658 H              1 RES1               0.0000
     22 H22        130.7233 263.7259 369.1801 H              1 RES1               0.0000
     23 H23        127.0528 263.4507 370.8976 H              1 RES1               0.0000
     24 H24        126.7354 267.4386 367.6025 H              1 RES1               0.0000
     25 H25        127.7181 265.9760 367.6123 H              1 RES1               0.0000
     26 H26        126.3731 266.1414 368.7388 H              1 RES1               0.0000
     27 H27        131.0865 269.7878 372.3332 H              1 RES1               0.0000
     28 H28        130.2305 266.3378 374.6880 H              1 RES1               0.0000
     29 H29        131.2104 268.5900 374.4842 H              1 RES1               0.0000
@<TRIPOS>BOND
    1    1    2 1     
    2    1    3 1     
    3    1    4 1     
    4    1    5 1     
    5    2    6 ar    
    6    2    7 ar    
    7    3    8 1     
    8    3    9 2     
    9    4   10 1     
   10    4   11 2     
   11    5   12 1     
   12    5   18 1     
   13    5   19 1     
   14    6   13 ar    
   15    6   20 1     
   16    7   14 ar    
   17    7   21 1     
   18    8   15 1     
   19    8   22 1     
   20   10   15 1     
   21   10   23 1     
   22   12   24 1     
   23   12   25 1     
   24   12   26 1     
   25   13   16 ar    
   26   13   27 1     
   27   14   16 ar    
   28   14   28 1     
   29   15   17 2     
   30   16   29 1     
@<TRIPOS>SUBSTRUCTURE
      1 RES1           1
@<TRIPOS>SET
DONOR_HYDROGENS      STATIC     ATOMS    <user>   **** ""
2 22 23
ATOM$RED        STATIC     ATOMS    COLORGROUP SYSTEM
2 22 23
@<TRIPOS>COMMENT
> <Gold.Version>
2022.3.0

> <Gold.Id.Protein>
unknown|5uo4_clean|pdb

> <Gold.Protein.RotatedTorsions>
[ 13162 13141 13139 13136 ] final -165.87 input   60.01 | X-H torsion

> <Gold.Protein.ActiveResidues>
 GLU351  PRO715  TRP716  ASN717  THR718  HIS719  VAL720  TRP721 

> <Gold.Protein.RotatedAtoms>
  129.3997  264.4463  366.5084 H   0  0  0  0  0  0  0  0  0  0  0  0  # atno 13162 bound_to 13141
  130.2999  264.6679  367.8458 LP  0  0  0  0  0  0  0  0  0  0  0  0  # atno 13530 bound_to 13141
  130.8593  263.7365  366.6267 LP  0  0  0  0  0  0  0  0  0  0  0  0  # atno 13531 bound_to 13141

> <Gold.Score>
     Fitness  S(hb_ext) S(vdw_ext)  S(hb_int)    S(int)      intcor
     36.11       1.02      25.99       0.00      -0.65      -0.76

> <Gold.Goldscore.Fitness>
36.1084

> <Gold.Goldscore.Internal.Vdw>
-0.8001

> <Gold.Goldscore.Internal.Torsion>
-0.6123

> <Gold.Goldscore.External.Vdw>
25.9946

> <Gold.Goldscore.Internal.HBond>
0.0000

> <Gold.Goldscore.External.HBond>
1.0198

> <Gold.Goldscore.Internal.Correction>
-0.7585

> <Gold.Goldscore.Hbonds>
donor molecule, donor type, donor heavy atom, donor atom, acceptor molecule, acceptor atom, score
      L1  H     8    22       P1 13034  0.51

> <Gold.Goldscore.Internal.Vdw.Weighted>
-0.8001

> <Gold.Goldscore.Internal.Torsion.Weighted>
-0.6123

> <Gold.Goldscore.External.Vdw.Weighted>
35.7425

> <Gold.Goldscore.Internal.HBond.Weighted>
0.0000

> <Gold.Goldscore.External.HBond.Weighted>
1.0198

> <Gold.Goldscore.Internal.Correction.Weighted>
-0.7585

> <Gold.Rescore>
     Score     S(PLP)   S(hbond)     S(cho)   S(metal)  DE(clash)   DE(tors)     intcor
     12.35     -13.22       0.00       0.00       0.00       0.00       0.44       ----

> <Gold.PLP.Fitness>
12.3499

> <Gold.PLP.PLP>
-13.2218

> <Gold.PLP.part.hbond>
-2.3781

> <Gold.PLP.part.metal>
0.0000

> <Gold.PLP.part.buried>
15.4344

> <Gold.PLP.part.nonpolar>
-39.0624

> <Gold.PLP.part.repulsive>
11.5701

> <Gold.PLP.ligand.clash>
0.0000

> <Gold.PLP.ligand.torsion>
0.4359

> <Gold.PLP.Chemscore.Hbond>
0.0000

> <Gold.PLP.Chemscore.CHOScore>
0.0000

> <Gold.PLP.Chemscore.Metal>
0.0000

> <Gold.PLP.Chemscore.Internal.Correction>
   9.000000E+99

